version 2
run General-0-20190208-18:16:47-30974
attr configname General
attr datetime 20190208-18:16:47
attr experiment General
attr inifile 01_SanityCheck.ini
attr iterationvars ""
attr iterationvarsf ""
attr measurement ""
attr network TestNetwork
attr processid 30974
attr repetition 0
attr replication #0
attr resultdir 01_results_SanityCheck
attr runnumber 0
attr seedset 0
param **.displayAddresses true
param **.verbose true
param **.promiscuous true
param **.registerProtocol true
param **.*.clock.clockRate "\"1us\""
param **.robotController.eth.mac.address "\"00-00-00-00-00-01\""
param **.workstation1.eth.mac.address "\"00-00-00-00-00-02\""
param **.sink.eth.mac.address "\"00-00-00-00-00-03\""
param **.switch*.processingDelay[*].delay 5us
param **.filteringDatabase.database "xmldoc(\"01_results_SanityCheck/01_SanityCheck_Routing.xml\", \"/filteringDatabases/\")"
param **.filteringDatabase.cycle "xmldoc(\"01_results_SanityCheck/01_SanityCheck_Schedule.xml\", \"/schedule/\")"
param **.gateController.initialSchedule "xmldoc(\"01_results_SanityCheck/01_SanityCheck_Schedule.xml\")"
param **.gateController.enableHoldAndRelease false
param **.switch*.queuing[*].tsAlgorithms[0].typename "\"StrictPriority\""
param **.switch*.queuing[*].tsAlgorithms[1].typename "\"StrictPriority\""
param **.switch*.queuing[*].tsAlgorithms[2].typename "\"StrictPriority\""
param **.switch*.queuing[*].tsAlgorithms[3].typename "\"StrictPriority\""
param **.switch*.queuing[*].tsAlgorithms[4].typename "\"StrictPriority\""
param **.switch*.queuing[*].tsAlgorithms[5].typename "\"StrictPriority\""
param **.switch*.queuing[*].tsAlgorithms[6].typename "\"StrictPriority\""
param **.switch*.queuing[*].tsAlgorithms[7].typename "\"StrictPriority\""
param **.queues[0].expressQueue false
param **.queues[1].expressQueue false
param **.queues[2].expressQueue false
param **.queues[3].expressQueue false
param **.queues[4].expressQueue false
param **.queues[5].expressQueue false
param **.queues[6].expressQueue false
param **.queues[7].expressQueue true
param **.queues[*].bufferCapacity 363360b
param **.switchA.eth[2].mac.enablePreemptingFrames true
param **.robotController.tsn_app.initialSchedule "xmldoc(\"01_results_SanityCheck/01_SanityCheck_Schedule.xml\")"
param **.workstation1.trafGenQueue.destAddress "\"00-00-00-00-00-03\""
param **.workstation1.trafGenQueue.packetLength "1500Byte - 4Byte"
param **.workstation1.trafGenQueue.vlanTagEnabled true
param **.workstation1.trafGenQueue.pcp 6
param **.sink.app.numPacketsPerBurst 0
param **.sink.app.sendInterval 1ms
param **.sink.app.packetLength 100B

scalar TestNetwork.switchA.eth[0].mac "simulated time" 1
scalar TestNetwork.switchA.eth[0].mac full-duplex 1
scalar TestNetwork.switchA.eth[0].mac "frames/sec sent" 0
scalar TestNetwork.switchA.eth[0].mac "frames/sec rcvd" 2500
scalar TestNetwork.switchA.eth[0].mac "bits/sec sent" 0
scalar TestNetwork.switchA.eth[0].mac "bits/sec rcvd" 7520000
scalar TestNetwork.switchA.eth[0].mac "rx channel idle (%)" 100
scalar TestNetwork.switchA.eth[0].mac "rx channel utilization (%)" 0
statistic TestNetwork.switchA.eth[0].mac pMacDelay:histogram
field count 0
field mean -nan
field stddev -nan
field min -nan
field max -nan
field sum 0
field sqrsum 0
attr interpolationmode none
attr title "pMacDelay, histogram"
bin	-inf	0
bin	0	0
bin	1	0
statistic TestNetwork.switchA.eth[0].mac eMacDelay:histogram
field count 0
field mean -nan
field stddev -nan
field min -nan
field max -nan
field sum 0
field sqrsum 0
attr interpolationmode none
attr title "eMacDelay, histogram"
bin	-inf	0
bin	0	0
bin	1	0
scalar TestNetwork.switchA.eth[0].mac expressFramesEnqueued:count 0
attr interpolationmode none
attr source expressFrameEnqueuedWhileSendingPreemptableSignal
attr title "express frames enqueued, count"
scalar TestNetwork.switchA.eth[0].mac mPacketsFull:count 0
attr interpolationmode none
attr source transmittedPreemptableFullSignal
attr title "mpackets full, count"
scalar TestNetwork.switchA.eth[0].mac mPacketsFinal:count 0
attr interpolationmode none
attr source transmittedPreemptableFinalSignal
attr title "mPackets final, count"
scalar TestNetwork.switchA.eth[0].mac mPacketsNonFinal:count 0
attr interpolationmode none
attr source transmittedPreemptableNonFinalSignal
attr title "mPackets non-final, count"
scalar TestNetwork.switchA.eth[0].mac mPackets:count 0
attr interpolationmode none
attr source transmittedPreemptableFramePartSignal
attr title "mPackets, count"
scalar TestNetwork.switchA.eth[0].mac preemptableFrames:count 0
attr interpolationmode none
attr source transmittedPreemptableFrameSignal
attr title "preemptableFrames, count"
scalar TestNetwork.switchA.eth[0].mac expressFrames:count 0
attr interpolationmode none
attr source transmittedExpressFrameSignal
attr title "expressFrames, count"
scalar TestNetwork.switchA.eth[0].mac preemptions:count 0
attr interpolationmode none
attr source preemptCurrentFrameSignal
attr title "preemptions, count"
scalar TestNetwork.switchA.eth[0].mac rxPausePkUnits:count 0
attr interpolationmode none
attr title "pause units received, count"
scalar TestNetwork.switchA.eth[0].mac rxPausePkUnits:sum 0
attr interpolationmode none
attr title "pause units received, sum"
scalar TestNetwork.switchA.eth[0].mac txPausePkUnits:count 0
attr interpolationmode none
attr title "pause units sent, count"
scalar TestNetwork.switchA.eth[0].mac txPausePkUnits:sum 0
attr interpolationmode none
attr title "pause units sent, sum"
scalar TestNetwork.switchA.eth[0].mac rxPkOk:count 2500
attr interpolationmode none
attr source rxPkOk
attr title "packets received OK, count"
scalar TestNetwork.switchA.eth[0].mac rxPkOk:sum(packetBytes) 940000
attr interpolationmode none
attr source rxPkOk
attr title "packets received OK, sum(packetBytes)"
scalar TestNetwork.switchA.eth[0].mac txPk:count 0
attr interpolationmode none
attr source packetSentToLower
attr title "packets transmitted, count"
scalar TestNetwork.switchA.eth[0].mac txPk:sum(packetBytes) 0
attr interpolationmode none
attr source packetSentToLower
attr title "packets transmitted, sum(packetBytes)"
scalar TestNetwork.switchA.eth[0].mac packetReceivedFromUpper:count 0
attr interpolationmode none
attr source packetReceivedFromUpper
attr title "packet bytes from higher layer, count"
scalar TestNetwork.switchA.eth[0].mac packetReceivedFromUpper:sum(packetBytes) 0
attr interpolationmode none
attr source packetReceivedFromUpper
attr title "packet bytes from higher layer, sum(packetBytes)"
scalar TestNetwork.switchA.eth[0].mac passedUpPk:count 2500
attr interpolationmode none
attr source packetSentToUpper
attr title "packets passed to higher layer, count"
scalar TestNetwork.switchA.eth[0].mac passedUpPk:sum(packetBytes) 940000
attr interpolationmode none
attr source packetSentToUpper
attr title "packets passed to higher layer, sum(packetBytes)"
scalar TestNetwork.switchA.eth[0].mac packetDropIncorrectlyReceived:count 0
attr interpolationmode none
attr source packetDropReasonIsIncorrectlyReceived(packetDropped)
attr title "packet drop: incorrectly received, count"
scalar TestNetwork.switchA.eth[0].mac packetDropIncorrectlyReceived:sum(packetBytes) 0
attr interpolationmode none
attr source packetDropReasonIsIncorrectlyReceived(packetDropped)
attr title "packet drop: incorrectly received, sum(packetBytes)"
scalar TestNetwork.switchA.eth[0].mac packetDropInterfaceDown:count 0
attr interpolationmode none
attr source packetDropReasonIsInterfaceDown(packetDropped)
attr title "packet drop: interface down, count"
scalar TestNetwork.switchA.eth[0].mac packetDropInterfaceDown:sum(packetBytes) 0
attr interpolationmode none
attr source packetDropReasonIsInterfaceDown(packetDropped)
attr title "packet drop: interface down, sum(packetBytes)"
scalar TestNetwork.switchA.eth[0].mac packetDropNotAddressedToUs:count 0
attr interpolationmode none
attr source packetDropReasonIsNotAddressedToUs(packetDropped)
attr title "packet drop: not addressed to us, count"
scalar TestNetwork.switchA.eth[0].mac packetDropNotAddressedToUs:sum(packetBytes) 0
attr interpolationmode none
attr source packetDropReasonIsNotAddressedToUs(packetDropped)
attr title "packet drop: not addressed to us, sum(packetBytes)"
scalar TestNetwork.switchA.eth[0].queuing.queues[0] dropPk:count 0
attr interpolationmode none
attr source dropPkByQueue
attr title "dropped packets, count"
scalar TestNetwork.switchA.eth[0].queuing.queues[0] dropPk:sum(packetBytes) 0
attr interpolationmode none
attr source dropPkByQueue
attr title "dropped packets, sum(packetBytes)"
scalar TestNetwork.switchA.eth[0].queuing.queues[0] rcvdPk:count 0
attr interpolationmode none
attr title "received packets, count"
scalar TestNetwork.switchA.eth[0].queuing.queues[0] rcvdPk:sum(packetBytes) 0
attr interpolationmode none
attr title "received packets, sum(packetBytes)"
statistic TestNetwork.switchA.eth[0].queuing.queues[0] queueingTime:histogram
field count 0
field mean -nan
field stddev -nan
field min -nan
field max -nan
field sum 0
field sqrsum 0
attr interpolationmode none
attr title "queueing time, histogram"
bin	-inf	0
bin	0	0
bin	1	0
scalar TestNetwork.switchA.eth[0].queuing.queues[0] queueLength:max 0
attr interpolationmode sample-hold
attr title "queue length, max"
scalar TestNetwork.switchA.eth[0].queuing.queues[0] queueLength:timeavg 0
attr interpolationmode sample-hold
attr title "queue length, timeavg"
scalar TestNetwork.switchA.eth[0].queuing.queues[1] dropPk:count 0
attr interpolationmode none
attr source dropPkByQueue
attr title "dropped packets, count"
scalar TestNetwork.switchA.eth[0].queuing.queues[1] dropPk:sum(packetBytes) 0
attr interpolationmode none
attr source dropPkByQueue
attr title "dropped packets, sum(packetBytes)"
scalar TestNetwork.switchA.eth[0].queuing.queues[1] rcvdPk:count 0
attr interpolationmode none
attr title "received packets, count"
scalar TestNetwork.switchA.eth[0].queuing.queues[1] rcvdPk:sum(packetBytes) 0
attr interpolationmode none
attr title "received packets, sum(packetBytes)"
statistic TestNetwork.switchA.eth[0].queuing.queues[1] queueingTime:histogram
field count 0
field mean -nan
field stddev -nan
field min -nan
field max -nan
field sum 0
field sqrsum 0
attr interpolationmode none
attr title "queueing time, histogram"
bin	-inf	0
bin	0	0
bin	1	0
scalar TestNetwork.switchA.eth[0].queuing.queues[1] queueLength:max 0
attr interpolationmode sample-hold
attr title "queue length, max"
scalar TestNetwork.switchA.eth[0].queuing.queues[1] queueLength:timeavg 0
attr interpolationmode sample-hold
attr title "queue length, timeavg"
scalar TestNetwork.switchA.eth[0].queuing.queues[2] dropPk:count 0
attr interpolationmode none
attr source dropPkByQueue
attr title "dropped packets, count"
scalar TestNetwork.switchA.eth[0].queuing.queues[2] dropPk:sum(packetBytes) 0
attr interpolationmode none
attr source dropPkByQueue
attr title "dropped packets, sum(packetBytes)"
scalar TestNetwork.switchA.eth[0].queuing.queues[2] rcvdPk:count 0
attr interpolationmode none
attr title "received packets, count"
scalar TestNetwork.switchA.eth[0].queuing.queues[2] rcvdPk:sum(packetBytes) 0
attr interpolationmode none
attr title "received packets, sum(packetBytes)"
statistic TestNetwork.switchA.eth[0].queuing.queues[2] queueingTime:histogram
field count 0
field mean -nan
field stddev -nan
field min -nan
field max -nan
field sum 0
field sqrsum 0
attr interpolationmode none
attr title "queueing time, histogram"
bin	-inf	0
bin	0	0
bin	1	0
scalar TestNetwork.switchA.eth[0].queuing.queues[2] queueLength:max 0
attr interpolationmode sample-hold
attr title "queue length, max"
scalar TestNetwork.switchA.eth[0].queuing.queues[2] queueLength:timeavg 0
attr interpolationmode sample-hold
attr title "queue length, timeavg"
scalar TestNetwork.switchA.eth[0].queuing.queues[3] dropPk:count 0
attr interpolationmode none
attr source dropPkByQueue
attr title "dropped packets, count"
scalar TestNetwork.switchA.eth[0].queuing.queues[3] dropPk:sum(packetBytes) 0
attr interpolationmode none
attr source dropPkByQueue
attr title "dropped packets, sum(packetBytes)"
scalar TestNetwork.switchA.eth[0].queuing.queues[3] rcvdPk:count 0
attr interpolationmode none
attr title "received packets, count"
scalar TestNetwork.switchA.eth[0].queuing.queues[3] rcvdPk:sum(packetBytes) 0
attr interpolationmode none
attr title "received packets, sum(packetBytes)"
statistic TestNetwork.switchA.eth[0].queuing.queues[3] queueingTime:histogram
field count 0
field mean -nan
field stddev -nan
field min -nan
field max -nan
field sum 0
field sqrsum 0
attr interpolationmode none
attr title "queueing time, histogram"
bin	-inf	0
bin	0	0
bin	1	0
scalar TestNetwork.switchA.eth[0].queuing.queues[3] queueLength:max 0
attr interpolationmode sample-hold
attr title "queue length, max"
scalar TestNetwork.switchA.eth[0].queuing.queues[3] queueLength:timeavg 0
attr interpolationmode sample-hold
attr title "queue length, timeavg"
scalar TestNetwork.switchA.eth[0].queuing.queues[4] dropPk:count 0
attr interpolationmode none
attr source dropPkByQueue
attr title "dropped packets, count"
scalar TestNetwork.switchA.eth[0].queuing.queues[4] dropPk:sum(packetBytes) 0
attr interpolationmode none
attr source dropPkByQueue
attr title "dropped packets, sum(packetBytes)"
scalar TestNetwork.switchA.eth[0].queuing.queues[4] rcvdPk:count 0
attr interpolationmode none
attr title "received packets, count"
scalar TestNetwork.switchA.eth[0].queuing.queues[4] rcvdPk:sum(packetBytes) 0
attr interpolationmode none
attr title "received packets, sum(packetBytes)"
statistic TestNetwork.switchA.eth[0].queuing.queues[4] queueingTime:histogram
field count 0
field mean -nan
field stddev -nan
field min -nan
field max -nan
field sum 0
field sqrsum 0
attr interpolationmode none
attr title "queueing time, histogram"
bin	-inf	0
bin	0	0
bin	1	0
scalar TestNetwork.switchA.eth[0].queuing.queues[4] queueLength:max 0
attr interpolationmode sample-hold
attr title "queue length, max"
scalar TestNetwork.switchA.eth[0].queuing.queues[4] queueLength:timeavg 0
attr interpolationmode sample-hold
attr title "queue length, timeavg"
scalar TestNetwork.switchA.eth[0].queuing.queues[5] dropPk:count 0
attr interpolationmode none
attr source dropPkByQueue
attr title "dropped packets, count"
scalar TestNetwork.switchA.eth[0].queuing.queues[5] dropPk:sum(packetBytes) 0
attr interpolationmode none
attr source dropPkByQueue
attr title "dropped packets, sum(packetBytes)"
scalar TestNetwork.switchA.eth[0].queuing.queues[5] rcvdPk:count 0
attr interpolationmode none
attr title "received packets, count"
scalar TestNetwork.switchA.eth[0].queuing.queues[5] rcvdPk:sum(packetBytes) 0
attr interpolationmode none
attr title "received packets, sum(packetBytes)"
statistic TestNetwork.switchA.eth[0].queuing.queues[5] queueingTime:histogram
field count 0
field mean -nan
field stddev -nan
field min -nan
field max -nan
field sum 0
field sqrsum 0
attr interpolationmode none
attr title "queueing time, histogram"
bin	-inf	0
bin	0	0
bin	1	0
scalar TestNetwork.switchA.eth[0].queuing.queues[5] queueLength:max 0
attr interpolationmode sample-hold
attr title "queue length, max"
scalar TestNetwork.switchA.eth[0].queuing.queues[5] queueLength:timeavg 0
attr interpolationmode sample-hold
attr title "queue length, timeavg"
scalar TestNetwork.switchA.eth[0].queuing.queues[6] dropPk:count 0
attr interpolationmode none
attr source dropPkByQueue
attr title "dropped packets, count"
scalar TestNetwork.switchA.eth[0].queuing.queues[6] dropPk:sum(packetBytes) 0
attr interpolationmode none
attr source dropPkByQueue
attr title "dropped packets, sum(packetBytes)"
scalar TestNetwork.switchA.eth[0].queuing.queues[6] rcvdPk:count 0
attr interpolationmode none
attr title "received packets, count"
scalar TestNetwork.switchA.eth[0].queuing.queues[6] rcvdPk:sum(packetBytes) 0
attr interpolationmode none
attr title "received packets, sum(packetBytes)"
statistic TestNetwork.switchA.eth[0].queuing.queues[6] queueingTime:histogram
field count 0
field mean -nan
field stddev -nan
field min -nan
field max -nan
field sum 0
field sqrsum 0
attr interpolationmode none
attr title "queueing time, histogram"
bin	-inf	0
bin	0	0
bin	1	0
scalar TestNetwork.switchA.eth[0].queuing.queues[6] queueLength:max 0
attr interpolationmode sample-hold
attr title "queue length, max"
scalar TestNetwork.switchA.eth[0].queuing.queues[6] queueLength:timeavg 0
attr interpolationmode sample-hold
attr title "queue length, timeavg"
scalar TestNetwork.switchA.eth[0].queuing.queues[7] dropPk:count 0
attr interpolationmode none
attr source dropPkByQueue
attr title "dropped packets, count"
scalar TestNetwork.switchA.eth[0].queuing.queues[7] dropPk:sum(packetBytes) 0
attr interpolationmode none
attr source dropPkByQueue
attr title "dropped packets, sum(packetBytes)"
scalar TestNetwork.switchA.eth[0].queuing.queues[7] rcvdPk:count 0
attr interpolationmode none
attr title "received packets, count"
scalar TestNetwork.switchA.eth[0].queuing.queues[7] rcvdPk:sum(packetBytes) 0
attr interpolationmode none
attr title "received packets, sum(packetBytes)"
statistic TestNetwork.switchA.eth[0].queuing.queues[7] queueingTime:histogram
field count 0
field mean -nan
field stddev -nan
field min -nan
field max -nan
field sum 0
field sqrsum 0
attr interpolationmode none
attr title "queueing time, histogram"
bin	-inf	0
bin	0	0
bin	1	0
scalar TestNetwork.switchA.eth[0].queuing.queues[7] queueLength:max 0
attr interpolationmode sample-hold
attr title "queue length, max"
scalar TestNetwork.switchA.eth[0].queuing.queues[7] queueLength:timeavg 0
attr interpolationmode sample-hold
attr title "queue length, timeavg"
scalar TestNetwork.switchA.eth[0].vlanEncapE decapPk:count 2500
attr interpolationmode none
attr source decapPk
attr title "packets decapsulated, count"
scalar TestNetwork.switchA.eth[0].vlanEncapE decapPk:sum(packetBytes) 885000
attr interpolationmode none
attr source decapPk
attr title "packets decapsulated, sum(packetBytes)"
scalar TestNetwork.switchA.eth[0].vlanEncapE encapPk:count 0
attr interpolationmode none
attr source encapPk
attr title "packets encapsulated, count"
scalar TestNetwork.switchA.eth[0].vlanEncapE encapPk:sum(packetBytes) 0
attr interpolationmode none
attr source encapPk
attr title "packets encapsulated, sum(packetBytes)"
scalar TestNetwork.switchA.eth[0].etherEncapE pauseSent:count 0
attr title "pause sent, count"
scalar TestNetwork.switchA.eth[0].etherEncapE pauseSent:sum 0
attr title "pause sent, sum"
scalar TestNetwork.switchA.eth[0].etherEncapE decapPk:count 2500
attr interpolationmode none
attr source decapPk
attr title "packets decapsulated, count"
scalar TestNetwork.switchA.eth[0].etherEncapE decapPk:sum(packetBytes) 895000
attr interpolationmode none
attr source decapPk
attr title "packets decapsulated, sum(packetBytes)"
scalar TestNetwork.switchA.eth[0].etherEncapE encapPk:count 0
attr interpolationmode none
attr source encapPk
attr title "packets encapsulated, count"
scalar TestNetwork.switchA.eth[0].etherEncapE encapPk:sum(packetBytes) 0
attr interpolationmode none
attr source encapPk
attr title "packets encapsulated, sum(packetBytes)"
scalar TestNetwork.switchA.eth[0].vlanEncapP decapPk:count 0
attr interpolationmode none
attr source decapPk
attr title "packets decapsulated, count"
scalar TestNetwork.switchA.eth[0].vlanEncapP decapPk:sum(packetBytes) 0
attr interpolationmode none
attr source decapPk
attr title "packets decapsulated, sum(packetBytes)"
scalar TestNetwork.switchA.eth[0].vlanEncapP encapPk:count 0
attr interpolationmode none
attr source encapPk
attr title "packets encapsulated, count"
scalar TestNetwork.switchA.eth[0].vlanEncapP encapPk:sum(packetBytes) 0
attr interpolationmode none
attr source encapPk
attr title "packets encapsulated, sum(packetBytes)"
scalar TestNetwork.switchA.eth[0].etherEncapP pauseSent:count 0
attr title "pause sent, count"
scalar TestNetwork.switchA.eth[0].etherEncapP pauseSent:sum 0
attr title "pause sent, sum"
scalar TestNetwork.switchA.eth[0].etherEncapP decapPk:count 0
attr interpolationmode none
attr source decapPk
attr title "packets decapsulated, count"
scalar TestNetwork.switchA.eth[0].etherEncapP decapPk:sum(packetBytes) 0
attr interpolationmode none
attr source decapPk
attr title "packets decapsulated, sum(packetBytes)"
scalar TestNetwork.switchA.eth[0].etherEncapP encapPk:count 0
attr interpolationmode none
attr source encapPk
attr title "packets encapsulated, count"
scalar TestNetwork.switchA.eth[0].etherEncapP encapPk:sum(packetBytes) 0
attr interpolationmode none
attr source encapPk
attr title "packets encapsulated, sum(packetBytes)"
scalar TestNetwork.switchA.eth[1].mac "simulated time" 1
scalar TestNetwork.switchA.eth[1].mac full-duplex 1
scalar TestNetwork.switchA.eth[1].mac "frames/sec sent" 0
scalar TestNetwork.switchA.eth[1].mac "frames/sec rcvd" 8127
scalar TestNetwork.switchA.eth[1].mac "bits/sec sent" 0
scalar TestNetwork.switchA.eth[1].mac "bits/sec rcvd" 98694288
scalar TestNetwork.switchA.eth[1].mac "rx channel idle (%)" 100
scalar TestNetwork.switchA.eth[1].mac "rx channel utilization (%)" 0
statistic TestNetwork.switchA.eth[1].mac pMacDelay:histogram
field count 0
field mean -nan
field stddev -nan
field min -nan
field max -nan
field sum 0
field sqrsum 0
attr interpolationmode none
attr title "pMacDelay, histogram"
bin	-inf	0
bin	0	0
bin	1	0
statistic TestNetwork.switchA.eth[1].mac eMacDelay:histogram
field count 0
field mean -nan
field stddev -nan
field min -nan
field max -nan
field sum 0
field sqrsum 0
attr interpolationmode none
attr title "eMacDelay, histogram"
bin	-inf	0
bin	0	0
bin	1	0
scalar TestNetwork.switchA.eth[1].mac expressFramesEnqueued:count 0
attr interpolationmode none
attr source expressFrameEnqueuedWhileSendingPreemptableSignal
attr title "express frames enqueued, count"
scalar TestNetwork.switchA.eth[1].mac mPacketsFull:count 0
attr interpolationmode none
attr source transmittedPreemptableFullSignal
attr title "mpackets full, count"
scalar TestNetwork.switchA.eth[1].mac mPacketsFinal:count 0
attr interpolationmode none
attr source transmittedPreemptableFinalSignal
attr title "mPackets final, count"
scalar TestNetwork.switchA.eth[1].mac mPacketsNonFinal:count 0
attr interpolationmode none
attr source transmittedPreemptableNonFinalSignal
attr title "mPackets non-final, count"
scalar TestNetwork.switchA.eth[1].mac mPackets:count 0
attr interpolationmode none
attr source transmittedPreemptableFramePartSignal
attr title "mPackets, count"
scalar TestNetwork.switchA.eth[1].mac preemptableFrames:count 0
attr interpolationmode none
attr source transmittedPreemptableFrameSignal
attr title "preemptableFrames, count"
scalar TestNetwork.switchA.eth[1].mac expressFrames:count 0
attr interpolationmode none
attr source transmittedExpressFrameSignal
attr title "expressFrames, count"
scalar TestNetwork.switchA.eth[1].mac preemptions:count 0
attr interpolationmode none
attr source preemptCurrentFrameSignal
attr title "preemptions, count"
scalar TestNetwork.switchA.eth[1].mac rxPausePkUnits:count 0
attr interpolationmode none
attr title "pause units received, count"
scalar TestNetwork.switchA.eth[1].mac rxPausePkUnits:sum 0
attr interpolationmode none
attr title "pause units received, sum"
scalar TestNetwork.switchA.eth[1].mac txPausePkUnits:count 0
attr interpolationmode none
attr title "pause units sent, count"
scalar TestNetwork.switchA.eth[1].mac txPausePkUnits:sum 0
attr interpolationmode none
attr title "pause units sent, sum"
scalar TestNetwork.switchA.eth[1].mac rxPkOk:count 8127
attr interpolationmode none
attr source rxPkOk
attr title "packets received OK, count"
scalar TestNetwork.switchA.eth[1].mac rxPkOk:sum(packetBytes) 12336786
attr interpolationmode none
attr source rxPkOk
attr title "packets received OK, sum(packetBytes)"
scalar TestNetwork.switchA.eth[1].mac txPk:count 0
attr interpolationmode none
attr source packetSentToLower
attr title "packets transmitted, count"
scalar TestNetwork.switchA.eth[1].mac txPk:sum(packetBytes) 0
attr interpolationmode none
attr source packetSentToLower
attr title "packets transmitted, sum(packetBytes)"
scalar TestNetwork.switchA.eth[1].mac packetReceivedFromUpper:count 0
attr interpolationmode none
attr source packetReceivedFromUpper
attr title "packet bytes from higher layer, count"
scalar TestNetwork.switchA.eth[1].mac packetReceivedFromUpper:sum(packetBytes) 0
attr interpolationmode none
attr source packetReceivedFromUpper
attr title "packet bytes from higher layer, sum(packetBytes)"
scalar TestNetwork.switchA.eth[1].mac passedUpPk:count 8127
attr interpolationmode none
attr source packetSentToUpper
attr title "packets passed to higher layer, count"
scalar TestNetwork.switchA.eth[1].mac passedUpPk:sum(packetBytes) 12336786
attr interpolationmode none
attr source packetSentToUpper
attr title "packets passed to higher layer, sum(packetBytes)"
scalar TestNetwork.switchA.eth[1].mac packetDropIncorrectlyReceived:count 0
attr interpolationmode none
attr source packetDropReasonIsIncorrectlyReceived(packetDropped)
attr title "packet drop: incorrectly received, count"
scalar TestNetwork.switchA.eth[1].mac packetDropIncorrectlyReceived:sum(packetBytes) 0
attr interpolationmode none
attr source packetDropReasonIsIncorrectlyReceived(packetDropped)
attr title "packet drop: incorrectly received, sum(packetBytes)"
scalar TestNetwork.switchA.eth[1].mac packetDropInterfaceDown:count 0
attr interpolationmode none
attr source packetDropReasonIsInterfaceDown(packetDropped)
attr title "packet drop: interface down, count"
scalar TestNetwork.switchA.eth[1].mac packetDropInterfaceDown:sum(packetBytes) 0
attr interpolationmode none
attr source packetDropReasonIsInterfaceDown(packetDropped)
attr title "packet drop: interface down, sum(packetBytes)"
scalar TestNetwork.switchA.eth[1].mac packetDropNotAddressedToUs:count 0
attr interpolationmode none
attr source packetDropReasonIsNotAddressedToUs(packetDropped)
attr title "packet drop: not addressed to us, count"
scalar TestNetwork.switchA.eth[1].mac packetDropNotAddressedToUs:sum(packetBytes) 0
attr interpolationmode none
attr source packetDropReasonIsNotAddressedToUs(packetDropped)
attr title "packet drop: not addressed to us, sum(packetBytes)"
scalar TestNetwork.switchA.eth[1].queuing.queues[0] dropPk:count 0
attr interpolationmode none
attr source dropPkByQueue
attr title "dropped packets, count"
scalar TestNetwork.switchA.eth[1].queuing.queues[0] dropPk:sum(packetBytes) 0
attr interpolationmode none
attr source dropPkByQueue
attr title "dropped packets, sum(packetBytes)"
scalar TestNetwork.switchA.eth[1].queuing.queues[0] rcvdPk:count 0
attr interpolationmode none
attr title "received packets, count"
scalar TestNetwork.switchA.eth[1].queuing.queues[0] rcvdPk:sum(packetBytes) 0
attr interpolationmode none
attr title "received packets, sum(packetBytes)"
statistic TestNetwork.switchA.eth[1].queuing.queues[0] queueingTime:histogram
field count 0
field mean -nan
field stddev -nan
field min -nan
field max -nan
field sum 0
field sqrsum 0
attr interpolationmode none
attr title "queueing time, histogram"
bin	-inf	0
bin	0	0
bin	1	0
scalar TestNetwork.switchA.eth[1].queuing.queues[0] queueLength:max 0
attr interpolationmode sample-hold
attr title "queue length, max"
scalar TestNetwork.switchA.eth[1].queuing.queues[0] queueLength:timeavg 0
attr interpolationmode sample-hold
attr title "queue length, timeavg"
scalar TestNetwork.switchA.eth[1].queuing.queues[1] dropPk:count 0
attr interpolationmode none
attr source dropPkByQueue
attr title "dropped packets, count"
scalar TestNetwork.switchA.eth[1].queuing.queues[1] dropPk:sum(packetBytes) 0
attr interpolationmode none
attr source dropPkByQueue
attr title "dropped packets, sum(packetBytes)"
scalar TestNetwork.switchA.eth[1].queuing.queues[1] rcvdPk:count 0
attr interpolationmode none
attr title "received packets, count"
scalar TestNetwork.switchA.eth[1].queuing.queues[1] rcvdPk:sum(packetBytes) 0
attr interpolationmode none
attr title "received packets, sum(packetBytes)"
statistic TestNetwork.switchA.eth[1].queuing.queues[1] queueingTime:histogram
field count 0
field mean -nan
field stddev -nan
field min -nan
field max -nan
field sum 0
field sqrsum 0
attr interpolationmode none
attr title "queueing time, histogram"
bin	-inf	0
bin	0	0
bin	1	0
scalar TestNetwork.switchA.eth[1].queuing.queues[1] queueLength:max 0
attr interpolationmode sample-hold
attr title "queue length, max"
scalar TestNetwork.switchA.eth[1].queuing.queues[1] queueLength:timeavg 0
attr interpolationmode sample-hold
attr title "queue length, timeavg"
scalar TestNetwork.switchA.eth[1].queuing.queues[2] dropPk:count 0
attr interpolationmode none
attr source dropPkByQueue
attr title "dropped packets, count"
scalar TestNetwork.switchA.eth[1].queuing.queues[2] dropPk:sum(packetBytes) 0
attr interpolationmode none
attr source dropPkByQueue
attr title "dropped packets, sum(packetBytes)"
scalar TestNetwork.switchA.eth[1].queuing.queues[2] rcvdPk:count 0
attr interpolationmode none
attr title "received packets, count"
scalar TestNetwork.switchA.eth[1].queuing.queues[2] rcvdPk:sum(packetBytes) 0
attr interpolationmode none
attr title "received packets, sum(packetBytes)"
statistic TestNetwork.switchA.eth[1].queuing.queues[2] queueingTime:histogram
field count 0
field mean -nan
field stddev -nan
field min -nan
field max -nan
field sum 0
field sqrsum 0
attr interpolationmode none
attr title "queueing time, histogram"
bin	-inf	0
bin	0	0
bin	1	0
scalar TestNetwork.switchA.eth[1].queuing.queues[2] queueLength:max 0
attr interpolationmode sample-hold
attr title "queue length, max"
scalar TestNetwork.switchA.eth[1].queuing.queues[2] queueLength:timeavg 0
attr interpolationmode sample-hold
attr title "queue length, timeavg"
scalar TestNetwork.switchA.eth[1].queuing.queues[3] dropPk:count 0
attr interpolationmode none
attr source dropPkByQueue
attr title "dropped packets, count"
scalar TestNetwork.switchA.eth[1].queuing.queues[3] dropPk:sum(packetBytes) 0
attr interpolationmode none
attr source dropPkByQueue
attr title "dropped packets, sum(packetBytes)"
scalar TestNetwork.switchA.eth[1].queuing.queues[3] rcvdPk:count 0
attr interpolationmode none
attr title "received packets, count"
scalar TestNetwork.switchA.eth[1].queuing.queues[3] rcvdPk:sum(packetBytes) 0
attr interpolationmode none
attr title "received packets, sum(packetBytes)"
statistic TestNetwork.switchA.eth[1].queuing.queues[3] queueingTime:histogram
field count 0
field mean -nan
field stddev -nan
field min -nan
field max -nan
field sum 0
field sqrsum 0
attr interpolationmode none
attr title "queueing time, histogram"
bin	-inf	0
bin	0	0
bin	1	0
scalar TestNetwork.switchA.eth[1].queuing.queues[3] queueLength:max 0
attr interpolationmode sample-hold
attr title "queue length, max"
scalar TestNetwork.switchA.eth[1].queuing.queues[3] queueLength:timeavg 0
attr interpolationmode sample-hold
attr title "queue length, timeavg"
scalar TestNetwork.switchA.eth[1].queuing.queues[4] dropPk:count 0
attr interpolationmode none
attr source dropPkByQueue
attr title "dropped packets, count"
scalar TestNetwork.switchA.eth[1].queuing.queues[4] dropPk:sum(packetBytes) 0
attr interpolationmode none
attr source dropPkByQueue
attr title "dropped packets, sum(packetBytes)"
scalar TestNetwork.switchA.eth[1].queuing.queues[4] rcvdPk:count 0
attr interpolationmode none
attr title "received packets, count"
scalar TestNetwork.switchA.eth[1].queuing.queues[4] rcvdPk:sum(packetBytes) 0
attr interpolationmode none
attr title "received packets, sum(packetBytes)"
statistic TestNetwork.switchA.eth[1].queuing.queues[4] queueingTime:histogram
field count 0
field mean -nan
field stddev -nan
field min -nan
field max -nan
field sum 0
field sqrsum 0
attr interpolationmode none
attr title "queueing time, histogram"
bin	-inf	0
bin	0	0
bin	1	0
scalar TestNetwork.switchA.eth[1].queuing.queues[4] queueLength:max 0
attr interpolationmode sample-hold
attr title "queue length, max"
scalar TestNetwork.switchA.eth[1].queuing.queues[4] queueLength:timeavg 0
attr interpolationmode sample-hold
attr title "queue length, timeavg"
scalar TestNetwork.switchA.eth[1].queuing.queues[5] dropPk:count 0
attr interpolationmode none
attr source dropPkByQueue
attr title "dropped packets, count"
scalar TestNetwork.switchA.eth[1].queuing.queues[5] dropPk:sum(packetBytes) 0
attr interpolationmode none
attr source dropPkByQueue
attr title "dropped packets, sum(packetBytes)"
scalar TestNetwork.switchA.eth[1].queuing.queues[5] rcvdPk:count 0
attr interpolationmode none
attr title "received packets, count"
scalar TestNetwork.switchA.eth[1].queuing.queues[5] rcvdPk:sum(packetBytes) 0
attr interpolationmode none
attr title "received packets, sum(packetBytes)"
statistic TestNetwork.switchA.eth[1].queuing.queues[5] queueingTime:histogram
field count 0
field mean -nan
field stddev -nan
field min -nan
field max -nan
field sum 0
field sqrsum 0
attr interpolationmode none
attr title "queueing time, histogram"
bin	-inf	0
bin	0	0
bin	1	0
scalar TestNetwork.switchA.eth[1].queuing.queues[5] queueLength:max 0
attr interpolationmode sample-hold
attr title "queue length, max"
scalar TestNetwork.switchA.eth[1].queuing.queues[5] queueLength:timeavg 0
attr interpolationmode sample-hold
attr title "queue length, timeavg"
scalar TestNetwork.switchA.eth[1].queuing.queues[6] dropPk:count 0
attr interpolationmode none
attr source dropPkByQueue
attr title "dropped packets, count"
scalar TestNetwork.switchA.eth[1].queuing.queues[6] dropPk:sum(packetBytes) 0
attr interpolationmode none
attr source dropPkByQueue
attr title "dropped packets, sum(packetBytes)"
scalar TestNetwork.switchA.eth[1].queuing.queues[6] rcvdPk:count 0
attr interpolationmode none
attr title "received packets, count"
scalar TestNetwork.switchA.eth[1].queuing.queues[6] rcvdPk:sum(packetBytes) 0
attr interpolationmode none
attr title "received packets, sum(packetBytes)"
statistic TestNetwork.switchA.eth[1].queuing.queues[6] queueingTime:histogram
field count 0
field mean -nan
field stddev -nan
field min -nan
field max -nan
field sum 0
field sqrsum 0
attr interpolationmode none
attr title "queueing time, histogram"
bin	-inf	0
bin	0	0
bin	1	0
scalar TestNetwork.switchA.eth[1].queuing.queues[6] queueLength:max 0
attr interpolationmode sample-hold
attr title "queue length, max"
scalar TestNetwork.switchA.eth[1].queuing.queues[6] queueLength:timeavg 0
attr interpolationmode sample-hold
attr title "queue length, timeavg"
scalar TestNetwork.switchA.eth[1].queuing.queues[7] dropPk:count 0
attr interpolationmode none
attr source dropPkByQueue
attr title "dropped packets, count"
scalar TestNetwork.switchA.eth[1].queuing.queues[7] dropPk:sum(packetBytes) 0
attr interpolationmode none
attr source dropPkByQueue
attr title "dropped packets, sum(packetBytes)"
scalar TestNetwork.switchA.eth[1].queuing.queues[7] rcvdPk:count 0
attr interpolationmode none
attr title "received packets, count"
scalar TestNetwork.switchA.eth[1].queuing.queues[7] rcvdPk:sum(packetBytes) 0
attr interpolationmode none
attr title "received packets, sum(packetBytes)"
statistic TestNetwork.switchA.eth[1].queuing.queues[7] queueingTime:histogram
field count 0
field mean -nan
field stddev -nan
field min -nan
field max -nan
field sum 0
field sqrsum 0
attr interpolationmode none
attr title "queueing time, histogram"
bin	-inf	0
bin	0	0
bin	1	0
scalar TestNetwork.switchA.eth[1].queuing.queues[7] queueLength:max 0
attr interpolationmode sample-hold
attr title "queue length, max"
scalar TestNetwork.switchA.eth[1].queuing.queues[7] queueLength:timeavg 0
attr interpolationmode sample-hold
attr title "queue length, timeavg"
scalar TestNetwork.switchA.eth[1].vlanEncapE decapPk:count 8127
attr interpolationmode none
attr source decapPk
attr title "packets decapsulated, count"
scalar TestNetwork.switchA.eth[1].vlanEncapE decapPk:sum(packetBytes) 12157992
attr interpolationmode none
attr source decapPk
attr title "packets decapsulated, sum(packetBytes)"
scalar TestNetwork.switchA.eth[1].vlanEncapE encapPk:count 0
attr interpolationmode none
attr source encapPk
attr title "packets encapsulated, count"
scalar TestNetwork.switchA.eth[1].vlanEncapE encapPk:sum(packetBytes) 0
attr interpolationmode none
attr source encapPk
attr title "packets encapsulated, sum(packetBytes)"
scalar TestNetwork.switchA.eth[1].etherEncapE pauseSent:count 0
attr title "pause sent, count"
scalar TestNetwork.switchA.eth[1].etherEncapE pauseSent:sum 0
attr title "pause sent, sum"
scalar TestNetwork.switchA.eth[1].etherEncapE decapPk:count 8127
attr interpolationmode none
attr source decapPk
attr title "packets decapsulated, count"
scalar TestNetwork.switchA.eth[1].etherEncapE decapPk:sum(packetBytes) 12190500
attr interpolationmode none
attr source decapPk
attr title "packets decapsulated, sum(packetBytes)"
scalar TestNetwork.switchA.eth[1].etherEncapE encapPk:count 0
attr interpolationmode none
attr source encapPk
attr title "packets encapsulated, count"
scalar TestNetwork.switchA.eth[1].etherEncapE encapPk:sum(packetBytes) 0
attr interpolationmode none
attr source encapPk
attr title "packets encapsulated, sum(packetBytes)"
scalar TestNetwork.switchA.eth[1].vlanEncapP decapPk:count 0
attr interpolationmode none
attr source decapPk
attr title "packets decapsulated, count"
scalar TestNetwork.switchA.eth[1].vlanEncapP decapPk:sum(packetBytes) 0
attr interpolationmode none
attr source decapPk
attr title "packets decapsulated, sum(packetBytes)"
scalar TestNetwork.switchA.eth[1].vlanEncapP encapPk:count 0
attr interpolationmode none
attr source encapPk
attr title "packets encapsulated, count"
scalar TestNetwork.switchA.eth[1].vlanEncapP encapPk:sum(packetBytes) 0
attr interpolationmode none
attr source encapPk
attr title "packets encapsulated, sum(packetBytes)"
scalar TestNetwork.switchA.eth[1].etherEncapP pauseSent:count 0
attr title "pause sent, count"
scalar TestNetwork.switchA.eth[1].etherEncapP pauseSent:sum 0
attr title "pause sent, sum"
scalar TestNetwork.switchA.eth[1].etherEncapP decapPk:count 0
attr interpolationmode none
attr source decapPk
attr title "packets decapsulated, count"
scalar TestNetwork.switchA.eth[1].etherEncapP decapPk:sum(packetBytes) 0
attr interpolationmode none
attr source decapPk
attr title "packets decapsulated, sum(packetBytes)"
scalar TestNetwork.switchA.eth[1].etherEncapP encapPk:count 0
attr interpolationmode none
attr source encapPk
attr title "packets encapsulated, count"
scalar TestNetwork.switchA.eth[1].etherEncapP encapPk:sum(packetBytes) 0
attr interpolationmode none
attr source encapPk
attr title "packets encapsulated, sum(packetBytes)"
scalar TestNetwork.switchA.eth[2].mac "simulated time" 1
scalar TestNetwork.switchA.eth[2].mac full-duplex 1
scalar TestNetwork.switchA.eth[2].mac "frames/sec sent" 12170
scalar TestNetwork.switchA.eth[2].mac "frames/sec rcvd" 0
scalar TestNetwork.switchA.eth[2].mac "bits/sec sent" 124952480
scalar TestNetwork.switchA.eth[2].mac "bits/sec rcvd" 0
scalar TestNetwork.switchA.eth[2].mac "rx channel idle (%)" 100
scalar TestNetwork.switchA.eth[2].mac "rx channel utilization (%)" 0
statistic TestNetwork.switchA.eth[2].mac pMacDelay:histogram
field count 9671
field mean 2.1041034019233e-05
field stddev 4.185287783915e-05
field min 0
field max 0.0001496
field sum 0.20348784
field sqrsum 2.12201794816e-05
attr interpolationmode none
attr title "pMacDelay, histogram"
bin	-inf	0
bin	0	7460
bin	2e-06	0
bin	4e-06	0
bin	6e-06	0
bin	8e-06	0
bin	1e-05	0
bin	1.2e-05	0
bin	1.4e-05	0
bin	1.6e-05	0
bin	1.8e-05	0
bin	2e-05	0
bin	2.2e-05	0
bin	2.4e-05	0
bin	2.6e-05	0
bin	2.8e-05	0
bin	3e-05	0
bin	3.2e-05	0
bin	3.4e-05	0
bin	3.6e-05	90
bin	3.8e-05	39
bin	4e-05	39
bin	4.2e-05	39
bin	4.4e-05	39
bin	4.6e-05	39
bin	4.8e-05	39
bin	5e-05	39
bin	5.2e-05	39
bin	5.4e-05	39
bin	5.6e-05	27
bin	5.8e-05	39
bin	6e-05	27
bin	6.2e-05	39
bin	6.4e-05	27
bin	6.6e-05	39
bin	6.8e-05	38
bin	7e-05	39
bin	7.2e-05	38
bin	7.4e-05	39
bin	7.6e-05	38
bin	7.8e-05	39
bin	8e-05	39
bin	8.2e-05	39
bin	8.4e-05	39
bin	8.6e-05	40
bin	8.8e-05	40
bin	9e-05	40
bin	9.2e-05	40
bin	9.4e-05	40
bin	9.6e-05	40
bin	9.8e-05	40
bin	0.0001	40
bin	0.000102	40
bin	0.000104	40
bin	0.000106	40
bin	0.000108	28
bin	0.00011	40
bin	0.000112	28
bin	0.000114	40
bin	0.000116	26
bin	0.000118	39
bin	0.00012	38
bin	0.000122	39
bin	0.000124	38
bin	0.000126	39
bin	0.000128	39
bin	0.00013	39
bin	0.000132	39
bin	0.000134	39
bin	0.000136	39
bin	0.000138	39
bin	0.00014	39
bin	0.000142	39
bin	0.000144	39
bin	0.000146	39
bin	0.000148	39
bin	0.00015	0
statistic TestNetwork.switchA.eth[2].mac eMacDelay:histogram
field count 2500
field mean 1.132032e-06
field stddev 4.0935502878512e-07
field min 0
field max 1.28e-06
field sum 0.0028300800000001
field sqrsum 3.6225023999999e-09
attr interpolationmode none
attr title "eMacDelay, histogram"
bin	-inf	0
bin	0	289
bin	2e-08	0
bin	4e-08	0
bin	6e-08	0
bin	8e-08	0
bin	1e-07	0
bin	1.2e-07	0
bin	1.4e-07	0
bin	1.6e-07	0
bin	1.8e-07	0
bin	2e-07	0
bin	2.2e-07	0
bin	2.4e-07	0
bin	2.6e-07	0
bin	2.8e-07	0
bin	3e-07	0
bin	3.2e-07	0
bin	3.4e-07	0
bin	3.6e-07	0
bin	3.8e-07	0
bin	4e-07	0
bin	4.2e-07	0
bin	4.4e-07	0
bin	4.6e-07	0
bin	4.8e-07	0
bin	5e-07	0
bin	5.2e-07	0
bin	5.4e-07	0
bin	5.6e-07	0
bin	5.8e-07	0
bin	6e-07	0
bin	6.2e-07	0
bin	6.4e-07	0
bin	6.6e-07	0
bin	6.8e-07	0
bin	7e-07	0
bin	7.2e-07	0
bin	7.4e-07	0
bin	7.6e-07	0
bin	7.8e-07	0
bin	8e-07	0
bin	8.2e-07	0
bin	8.4e-07	0
bin	8.6e-07	0
bin	8.8e-07	0
bin	9e-07	0
bin	9.2e-07	0
bin	9.4e-07	0
bin	9.6e-07	0
bin	9.8e-07	0
bin	1e-06	0
bin	1.02e-06	0
bin	1.04e-06	0
bin	1.06e-06	0
bin	1.08e-06	0
bin	1.1e-06	0
bin	1.12e-06	0
bin	1.14e-06	0
bin	1.16e-06	0
bin	1.18e-06	0
bin	1.2e-06	0
bin	1.22e-06	0
bin	1.24e-06	0
bin	1.26e-06	2211
bin	1.28e-06	0
bin	1.3e-06	0
bin	1.32e-06	0
bin	1.34e-06	0
bin	1.36e-06	0
bin	1.38e-06	0
bin	1.4e-06	0
bin	1.42e-06	0
bin	1.44e-06	0
bin	1.46e-06	0
bin	1.48e-06	0
bin	1.5e-06	0
bin	1.52e-06	0
bin	1.54e-06	0
bin	1.56e-06	0
bin	1.58e-06	0
bin	1.6e-06	0
scalar TestNetwork.switchA.eth[2].mac expressFramesEnqueued:count 2448
attr interpolationmode none
attr source expressFrameEnqueuedWhileSendingPreemptableSignal
attr title "express frames enqueued, count"
scalar TestNetwork.switchA.eth[2].mac mPacketsFull:count 5248
attr interpolationmode none
attr source transmittedPreemptableFullSignal
attr title "mpackets full, count"
scalar TestNetwork.switchA.eth[2].mac mPacketsFinal:count 2211
attr interpolationmode none
attr source transmittedPreemptableFinalSignal
attr title "mPackets final, count"
scalar TestNetwork.switchA.eth[2].mac mPacketsNonFinal:count 2211
attr interpolationmode none
attr source transmittedPreemptableNonFinalSignal
attr title "mPackets non-final, count"
scalar TestNetwork.switchA.eth[2].mac mPackets:count 9670
attr interpolationmode none
attr source transmittedPreemptableFramePartSignal
attr title "mPackets, count"
scalar TestNetwork.switchA.eth[2].mac preemptableFrames:count 7459
attr interpolationmode none
attr source transmittedPreemptableFrameSignal
attr title "preemptableFrames, count"
scalar TestNetwork.switchA.eth[2].mac expressFrames:count 2500
attr interpolationmode none
attr source transmittedExpressFrameSignal
attr title "expressFrames, count"
scalar TestNetwork.switchA.eth[2].mac preemptions:count 2211
attr interpolationmode none
attr source preemptCurrentFrameSignal
attr title "preemptions, count"
scalar TestNetwork.switchA.eth[2].mac rxPausePkUnits:count 0
attr interpolationmode none
attr title "pause units received, count"
scalar TestNetwork.switchA.eth[2].mac rxPausePkUnits:sum 0
attr interpolationmode none
attr title "pause units received, sum"
scalar TestNetwork.switchA.eth[2].mac txPausePkUnits:count 0
attr interpolationmode none
attr title "pause units sent, count"
scalar TestNetwork.switchA.eth[2].mac txPausePkUnits:sum 0
attr interpolationmode none
attr title "pause units sent, sum"
scalar TestNetwork.switchA.eth[2].mac rxPkOk:count 0
attr interpolationmode none
attr source rxPkOk
attr title "packets received OK, count"
scalar TestNetwork.switchA.eth[2].mac rxPkOk:sum(packetBytes) 0
attr interpolationmode none
attr source rxPkOk
attr title "packets received OK, sum(packetBytes)"
scalar TestNetwork.switchA.eth[2].mac txPk:count 12170
attr interpolationmode none
attr source packetSentToLower
attr title "packets transmitted, count"
scalar TestNetwork.switchA.eth[2].mac txPk:sum(packetBytes) 15619060
attr interpolationmode none
attr source packetSentToLower
attr title "packets transmitted, sum(packetBytes)"
scalar TestNetwork.switchA.eth[2].mac packetReceivedFromUpper:count 9960
attr interpolationmode none
attr source packetReceivedFromUpper
attr title "packet bytes from higher layer, count"
scalar TestNetwork.switchA.eth[2].mac packetReceivedFromUpper:sum(packetBytes) 12264280
attr interpolationmode none
attr source packetReceivedFromUpper
attr title "packet bytes from higher layer, sum(packetBytes)"
scalar TestNetwork.switchA.eth[2].mac passedUpPk:count 0
attr interpolationmode none
attr source packetSentToUpper
attr title "packets passed to higher layer, count"
scalar TestNetwork.switchA.eth[2].mac passedUpPk:sum(packetBytes) 0
attr interpolationmode none
attr source packetSentToUpper
attr title "packets passed to higher layer, sum(packetBytes)"
scalar TestNetwork.switchA.eth[2].mac packetDropIncorrectlyReceived:count 0
attr interpolationmode none
attr source packetDropReasonIsIncorrectlyReceived(packetDropped)
attr title "packet drop: incorrectly received, count"
scalar TestNetwork.switchA.eth[2].mac packetDropIncorrectlyReceived:sum(packetBytes) 0
attr interpolationmode none
attr source packetDropReasonIsIncorrectlyReceived(packetDropped)
attr title "packet drop: incorrectly received, sum(packetBytes)"
scalar TestNetwork.switchA.eth[2].mac packetDropInterfaceDown:count 0
attr interpolationmode none
attr source packetDropReasonIsInterfaceDown(packetDropped)
attr title "packet drop: interface down, count"
scalar TestNetwork.switchA.eth[2].mac packetDropInterfaceDown:sum(packetBytes) 0
attr interpolationmode none
attr source packetDropReasonIsInterfaceDown(packetDropped)
attr title "packet drop: interface down, sum(packetBytes)"
scalar TestNetwork.switchA.eth[2].mac packetDropNotAddressedToUs:count 0
attr interpolationmode none
attr source packetDropReasonIsNotAddressedToUs(packetDropped)
attr title "packet drop: not addressed to us, count"
scalar TestNetwork.switchA.eth[2].mac packetDropNotAddressedToUs:sum(packetBytes) 0
attr interpolationmode none
attr source packetDropReasonIsNotAddressedToUs(packetDropped)
attr title "packet drop: not addressed to us, sum(packetBytes)"
scalar TestNetwork.switchA.eth[2].queuing.queues[0] dropPk:count 0
attr interpolationmode none
attr source dropPkByQueue
attr title "dropped packets, count"
scalar TestNetwork.switchA.eth[2].queuing.queues[0] dropPk:sum(packetBytes) 0
attr interpolationmode none
attr source dropPkByQueue
attr title "dropped packets, sum(packetBytes)"
scalar TestNetwork.switchA.eth[2].queuing.queues[0] rcvdPk:count 0
attr interpolationmode none
attr title "received packets, count"
scalar TestNetwork.switchA.eth[2].queuing.queues[0] rcvdPk:sum(packetBytes) 0
attr interpolationmode none
attr title "received packets, sum(packetBytes)"
statistic TestNetwork.switchA.eth[2].queuing.queues[0] queueingTime:histogram
field count 0
field mean -nan
field stddev -nan
field min -nan
field max -nan
field sum 0
field sqrsum 0
attr interpolationmode none
attr title "queueing time, histogram"
bin	-inf	0
bin	0	0
bin	1	0
scalar TestNetwork.switchA.eth[2].queuing.queues[0] queueLength:max 0
attr interpolationmode sample-hold
attr title "queue length, max"
scalar TestNetwork.switchA.eth[2].queuing.queues[0] queueLength:timeavg 0
attr interpolationmode sample-hold
attr title "queue length, timeavg"
scalar TestNetwork.switchA.eth[2].queuing.queues[1] dropPk:count 0
attr interpolationmode none
attr source dropPkByQueue
attr title "dropped packets, count"
scalar TestNetwork.switchA.eth[2].queuing.queues[1] dropPk:sum(packetBytes) 0
attr interpolationmode none
attr source dropPkByQueue
attr title "dropped packets, sum(packetBytes)"
scalar TestNetwork.switchA.eth[2].queuing.queues[1] rcvdPk:count 0
attr interpolationmode none
attr title "received packets, count"
scalar TestNetwork.switchA.eth[2].queuing.queues[1] rcvdPk:sum(packetBytes) 0
attr interpolationmode none
attr title "received packets, sum(packetBytes)"
statistic TestNetwork.switchA.eth[2].queuing.queues[1] queueingTime:histogram
field count 0
field mean -nan
field stddev -nan
field min -nan
field max -nan
field sum 0
field sqrsum 0
attr interpolationmode none
attr title "queueing time, histogram"
bin	-inf	0
bin	0	0
bin	1	0
scalar TestNetwork.switchA.eth[2].queuing.queues[1] queueLength:max 0
attr interpolationmode sample-hold
attr title "queue length, max"
scalar TestNetwork.switchA.eth[2].queuing.queues[1] queueLength:timeavg 0
attr interpolationmode sample-hold
attr title "queue length, timeavg"
scalar TestNetwork.switchA.eth[2].queuing.queues[2] dropPk:count 0
attr interpolationmode none
attr source dropPkByQueue
attr title "dropped packets, count"
scalar TestNetwork.switchA.eth[2].queuing.queues[2] dropPk:sum(packetBytes) 0
attr interpolationmode none
attr source dropPkByQueue
attr title "dropped packets, sum(packetBytes)"
scalar TestNetwork.switchA.eth[2].queuing.queues[2] rcvdPk:count 0
attr interpolationmode none
attr title "received packets, count"
scalar TestNetwork.switchA.eth[2].queuing.queues[2] rcvdPk:sum(packetBytes) 0
attr interpolationmode none
attr title "received packets, sum(packetBytes)"
statistic TestNetwork.switchA.eth[2].queuing.queues[2] queueingTime:histogram
field count 0
field mean -nan
field stddev -nan
field min -nan
field max -nan
field sum 0
field sqrsum 0
attr interpolationmode none
attr title "queueing time, histogram"
bin	-inf	0
bin	0	0
bin	1	0
scalar TestNetwork.switchA.eth[2].queuing.queues[2] queueLength:max 0
attr interpolationmode sample-hold
attr title "queue length, max"
scalar TestNetwork.switchA.eth[2].queuing.queues[2] queueLength:timeavg 0
attr interpolationmode sample-hold
attr title "queue length, timeavg"
scalar TestNetwork.switchA.eth[2].queuing.queues[3] dropPk:count 0
attr interpolationmode none
attr source dropPkByQueue
attr title "dropped packets, count"
scalar TestNetwork.switchA.eth[2].queuing.queues[3] dropPk:sum(packetBytes) 0
attr interpolationmode none
attr source dropPkByQueue
attr title "dropped packets, sum(packetBytes)"
scalar TestNetwork.switchA.eth[2].queuing.queues[3] rcvdPk:count 0
attr interpolationmode none
attr title "received packets, count"
scalar TestNetwork.switchA.eth[2].queuing.queues[3] rcvdPk:sum(packetBytes) 0
attr interpolationmode none
attr title "received packets, sum(packetBytes)"
statistic TestNetwork.switchA.eth[2].queuing.queues[3] queueingTime:histogram
field count 0
field mean -nan
field stddev -nan
field min -nan
field max -nan
field sum 0
field sqrsum 0
attr interpolationmode none
attr title "queueing time, histogram"
bin	-inf	0
bin	0	0
bin	1	0
scalar TestNetwork.switchA.eth[2].queuing.queues[3] queueLength:max 0
attr interpolationmode sample-hold
attr title "queue length, max"
scalar TestNetwork.switchA.eth[2].queuing.queues[3] queueLength:timeavg 0
attr interpolationmode sample-hold
attr title "queue length, timeavg"
scalar TestNetwork.switchA.eth[2].queuing.queues[4] dropPk:count 0
attr interpolationmode none
attr source dropPkByQueue
attr title "dropped packets, count"
scalar TestNetwork.switchA.eth[2].queuing.queues[4] dropPk:sum(packetBytes) 0
attr interpolationmode none
attr source dropPkByQueue
attr title "dropped packets, sum(packetBytes)"
scalar TestNetwork.switchA.eth[2].queuing.queues[4] rcvdPk:count 0
attr interpolationmode none
attr title "received packets, count"
scalar TestNetwork.switchA.eth[2].queuing.queues[4] rcvdPk:sum(packetBytes) 0
attr interpolationmode none
attr title "received packets, sum(packetBytes)"
statistic TestNetwork.switchA.eth[2].queuing.queues[4] queueingTime:histogram
field count 0
field mean -nan
field stddev -nan
field min -nan
field max -nan
field sum 0
field sqrsum 0
attr interpolationmode none
attr title "queueing time, histogram"
bin	-inf	0
bin	0	0
bin	1	0
scalar TestNetwork.switchA.eth[2].queuing.queues[4] queueLength:max 0
attr interpolationmode sample-hold
attr title "queue length, max"
scalar TestNetwork.switchA.eth[2].queuing.queues[4] queueLength:timeavg 0
attr interpolationmode sample-hold
attr title "queue length, timeavg"
scalar TestNetwork.switchA.eth[2].queuing.queues[5] dropPk:count 0
attr interpolationmode none
attr source dropPkByQueue
attr title "dropped packets, count"
scalar TestNetwork.switchA.eth[2].queuing.queues[5] dropPk:sum(packetBytes) 0
attr interpolationmode none
attr source dropPkByQueue
attr title "dropped packets, sum(packetBytes)"
scalar TestNetwork.switchA.eth[2].queuing.queues[5] rcvdPk:count 0
attr interpolationmode none
attr title "received packets, count"
scalar TestNetwork.switchA.eth[2].queuing.queues[5] rcvdPk:sum(packetBytes) 0
attr interpolationmode none
attr title "received packets, sum(packetBytes)"
statistic TestNetwork.switchA.eth[2].queuing.queues[5] queueingTime:histogram
field count 0
field mean -nan
field stddev -nan
field min -nan
field max -nan
field sum 0
field sqrsum 0
attr interpolationmode none
attr title "queueing time, histogram"
bin	-inf	0
bin	0	0
bin	1	0
scalar TestNetwork.switchA.eth[2].queuing.queues[5] queueLength:max 0
attr interpolationmode sample-hold
attr title "queue length, max"
scalar TestNetwork.switchA.eth[2].queuing.queues[5] queueLength:timeavg 0
attr interpolationmode sample-hold
attr title "queue length, timeavg"
scalar TestNetwork.switchA.eth[2].queuing.queues[6] dropPk:count 637
attr interpolationmode none
attr source dropPkByQueue
attr title "dropped packets, count"
scalar TestNetwork.switchA.eth[2].queuing.queues[6] dropPk:sum(packetBytes) 952952
attr interpolationmode none
attr source dropPkByQueue
attr title "dropped packets, sum(packetBytes)"
scalar TestNetwork.switchA.eth[2].queuing.queues[6] rcvdPk:count 8127
attr interpolationmode none
attr title "received packets, count"
scalar TestNetwork.switchA.eth[2].queuing.queues[6] rcvdPk:sum(packetBytes) 12157992
attr interpolationmode none
attr title "received packets, sum(packetBytes)"
statistic TestNetwork.switchA.eth[2].queuing.queues[6] queueingTime:histogram
field count 7460
field mean 0.0038630073136729
field stddev 0.00049741808725215
field min 0
field max 0.00404912
field sum 28.81803456
field sqrsum 0.11316981950751
attr interpolationmode none
attr title "queueing time, histogram"
bin	-inf	0
bin	0	12
bin	0.0001	9
bin	0.0002	9
bin	0.0003	9
bin	0.0004	9
bin	0.0005	9
bin	0.0006	9
bin	0.0007	9
bin	0.0008	9
bin	0.0009	9
bin	0.001	9
bin	0.0011	9
bin	0.0012	9
bin	0.0013	8
bin	0.0014	9
bin	0.0015	9
bin	0.0016	9
bin	0.0017	9
bin	0.0018	9
bin	0.0019	9
bin	0.002	12
bin	0.0021	9
bin	0.0022	9
bin	0.0023	9
bin	0.0024	9
bin	0.0025	9
bin	0.0026	9
bin	0.0027	9
bin	0.0028	9
bin	0.0029	9
bin	0.003	9
bin	0.0031	9
bin	0.0032	9
bin	0.0033	9
bin	0.0034	8
bin	0.0035	9
bin	0.0036	9
bin	0.0037	9
bin	0.0038	213
bin	0.0039	5688
bin	0.004	1213
bin	0.0041	0
bin	0.0042	0
bin	0.0043	0
bin	0.0044	0
bin	0.0045	0
bin	0.0046	0
bin	0.0047	0
bin	0.0048	0
bin	0.0049	0
bin	0.005	0
bin	0.0051	0
scalar TestNetwork.switchA.eth[2].queuing.queues[6] queueLength:max 30
attr interpolationmode sample-hold
attr title "queue length, max"
scalar TestNetwork.switchA.eth[2].queuing.queues[6] queueLength:timeavg 28.877848919999
attr interpolationmode sample-hold
attr title "queue length, timeavg"
scalar TestNetwork.switchA.eth[2].queuing.queues[7] dropPk:count 0
attr interpolationmode none
attr source dropPkByQueue
attr title "dropped packets, count"
scalar TestNetwork.switchA.eth[2].queuing.queues[7] dropPk:sum(packetBytes) 0
attr interpolationmode none
attr source dropPkByQueue
attr title "dropped packets, sum(packetBytes)"
scalar TestNetwork.switchA.eth[2].queuing.queues[7] rcvdPk:count 2500
attr interpolationmode none
attr title "received packets, count"
scalar TestNetwork.switchA.eth[2].queuing.queues[7] rcvdPk:sum(packetBytes) 885000
attr interpolationmode none
attr title "received packets, sum(packetBytes)"
statistic TestNetwork.switchA.eth[2].queuing.queues[7] queueingTime:histogram
field count 2500
field mean 4.41408e-07
field stddev 1.250379797258e-06
field min 0
field max 6.24e-06
field sum 0.00110352
field sqrsum 4.3941632e-09
attr interpolationmode none
attr title "queueing time, histogram"
bin	-inf	0
bin	0	2134
bin	1e-07	12
bin	2e-07	0
bin	3e-07	1
bin	4e-07	13
bin	5e-07	0
bin	6e-07	13
bin	7e-07	24
bin	8e-07	0
bin	9e-07	13
bin	1e-06	0
bin	1.1e-06	2
bin	1.2e-06	2
bin	1.3e-06	0
bin	1.4e-06	1
bin	1.5e-06	12
bin	1.6e-06	0
bin	1.7e-06	12
bin	1.8e-06	0
bin	1.9e-06	13
bin	2e-06	1
bin	2.1e-06	0
bin	2.2e-06	1
bin	2.3e-06	12
bin	2.4e-06	0
bin	2.5e-06	24
bin	2.6e-06	0
bin	2.7e-06	25
bin	2.8e-06	13
bin	2.9e-06	0
bin	3e-06	2
bin	3.1e-06	13
bin	3.2e-06	0
bin	3.3e-06	13
bin	3.4e-06	0
bin	3.5e-06	13
bin	3.6e-06	1
bin	3.7e-06	0
bin	3.8e-06	1
bin	3.9e-06	12
bin	4e-06	0
bin	4.1e-06	12
bin	4.2e-06	0
bin	4.3e-06	13
bin	4.4e-06	1
bin	4.5e-06	0
bin	4.6e-06	13
bin	4.7e-06	12
bin	4.8e-06	0
bin	4.9e-06	12
bin	5e-06	0
bin	5.1e-06	13
bin	5.2e-06	1
bin	5.3e-06	0
bin	5.4e-06	1
bin	5.5e-06	12
bin	5.6e-06	0
bin	5.7e-06	12
bin	5.8e-06	0
bin	5.9e-06	13
bin	6e-06	1
bin	6.1e-06	0
bin	6.2e-06	1
bin	6.3e-06	0
bin	6.4e-06	0
bin	6.5e-06	0
bin	6.6e-06	0
bin	6.7e-06	0
bin	6.8e-06	0
bin	6.9e-06	0
bin	7e-06	0
bin	7.1e-06	0
bin	7.2e-06	0
bin	7.3e-06	0
bin	7.4e-06	0
bin	7.5e-06	0
bin	7.6e-06	0
bin	7.7e-06	0
bin	7.8e-06	0
scalar TestNetwork.switchA.eth[2].queuing.queues[7] queueLength:max 1
attr interpolationmode sample-hold
attr title "queue length, max"
scalar TestNetwork.switchA.eth[2].queuing.queues[7] queueLength:timeavg 0.00110352
attr interpolationmode sample-hold
attr title "queue length, timeavg"
scalar TestNetwork.switchA.eth[2].vlanEncapE decapPk:count 0
attr interpolationmode none
attr source decapPk
attr title "packets decapsulated, count"
scalar TestNetwork.switchA.eth[2].vlanEncapE decapPk:sum(packetBytes) 0
attr interpolationmode none
attr source decapPk
attr title "packets decapsulated, sum(packetBytes)"
scalar TestNetwork.switchA.eth[2].vlanEncapE encapPk:count 2500
attr interpolationmode none
attr source encapPk
attr title "packets encapsulated, count"
scalar TestNetwork.switchA.eth[2].vlanEncapE encapPk:sum(packetBytes) 895000
attr interpolationmode none
attr source encapPk
attr title "packets encapsulated, sum(packetBytes)"
scalar TestNetwork.switchA.eth[2].etherEncapE pauseSent:count 0
attr title "pause sent, count"
scalar TestNetwork.switchA.eth[2].etherEncapE pauseSent:sum 0
attr title "pause sent, sum"
scalar TestNetwork.switchA.eth[2].etherEncapE decapPk:count 0
attr interpolationmode none
attr source decapPk
attr title "packets decapsulated, count"
scalar TestNetwork.switchA.eth[2].etherEncapE decapPk:sum(packetBytes) 0
attr interpolationmode none
attr source decapPk
attr title "packets decapsulated, sum(packetBytes)"
scalar TestNetwork.switchA.eth[2].etherEncapE encapPk:count 2500
attr interpolationmode none
attr source encapPk
attr title "packets encapsulated, count"
scalar TestNetwork.switchA.eth[2].etherEncapE encapPk:sum(packetBytes) 895000
attr interpolationmode none
attr source encapPk
attr title "packets encapsulated, sum(packetBytes)"
scalar TestNetwork.switchA.eth[2].vlanEncapP decapPk:count 0
attr interpolationmode none
attr source decapPk
attr title "packets decapsulated, count"
scalar TestNetwork.switchA.eth[2].vlanEncapP decapPk:sum(packetBytes) 0
attr interpolationmode none
attr source decapPk
attr title "packets decapsulated, sum(packetBytes)"
scalar TestNetwork.switchA.eth[2].vlanEncapP encapPk:count 7460
attr interpolationmode none
attr source encapPk
attr title "packets encapsulated, count"
scalar TestNetwork.switchA.eth[2].vlanEncapP encapPk:sum(packetBytes) 11190000
attr interpolationmode none
attr source encapPk
attr title "packets encapsulated, sum(packetBytes)"
scalar TestNetwork.switchA.eth[2].etherEncapP pauseSent:count 0
attr title "pause sent, count"
scalar TestNetwork.switchA.eth[2].etherEncapP pauseSent:sum 0
attr title "pause sent, sum"
scalar TestNetwork.switchA.eth[2].etherEncapP decapPk:count 0
attr interpolationmode none
attr source decapPk
attr title "packets decapsulated, count"
scalar TestNetwork.switchA.eth[2].etherEncapP decapPk:sum(packetBytes) 0
attr interpolationmode none
attr source decapPk
attr title "packets decapsulated, sum(packetBytes)"
scalar TestNetwork.switchA.eth[2].etherEncapP encapPk:count 7460
attr interpolationmode none
attr source encapPk
attr title "packets encapsulated, count"
scalar TestNetwork.switchA.eth[2].etherEncapP encapPk:sum(packetBytes) 11190000
attr interpolationmode none
attr source encapPk
attr title "packets encapsulated, sum(packetBytes)"
statistic TestNetwork.switchA.processingDelay[0] delay:stats
field count 2500
field mean 4.9999999999998e-06
field stddev 1.5403380501811e-12
field min 5e-06
field max 5e-06
field sum 0.0125
field sqrsum 6.2500000000002e-08
attr interpolationmode none
attr source delay
attr title "packet delay, stats"
scalar TestNetwork.switchA.processingDelay[0] packetReceived:count 2500
attr interpolationmode none
attr source packetReceived
attr title "packets received, count"
scalar TestNetwork.switchA.processingDelay[0] packetReceived:sum(packetBytes) 885000
attr interpolationmode none
attr source packetReceived
attr title "packets received, sum(packetBytes)"
scalar TestNetwork.switchA.processingDelay[0] packetSent:count 2500
attr interpolationmode none
attr source packetSent
attr title "packets sent, count"
scalar TestNetwork.switchA.processingDelay[0] packetSent:sum(packetBytes) 885000
attr interpolationmode none
attr source packetSent
attr title "packets sent, sum(packetBytes)"
statistic TestNetwork.switchA.processingDelay[1] delay:stats
field count 8127
field mean 5.0000000000001e-06
field stddev 8.8049163048082e-13
field min 5e-06
field max 5e-06
field sum 0.040635000000001
field sqrsum 2.0317500000001e-07
attr interpolationmode none
attr source delay
attr title "packet delay, stats"
scalar TestNetwork.switchA.processingDelay[1] packetReceived:count 8127
attr interpolationmode none
attr source packetReceived
attr title "packets received, count"
scalar TestNetwork.switchA.processingDelay[1] packetReceived:sum(packetBytes) 12157992
attr interpolationmode none
attr source packetReceived
attr title "packets received, sum(packetBytes)"
scalar TestNetwork.switchA.processingDelay[1] packetSent:count 8127
attr interpolationmode none
attr source packetSent
attr title "packets sent, count"
scalar TestNetwork.switchA.processingDelay[1] packetSent:sum(packetBytes) 12157992
attr interpolationmode none
attr source packetSent
attr title "packets sent, sum(packetBytes)"
statistic TestNetwork.switchA.processingDelay[2] delay:stats
field count 0
field mean -nan
field stddev -nan
field min -nan
field max -nan
field sum 0
field sqrsum 0
attr interpolationmode none
attr source delay
attr title "packet delay, stats"
scalar TestNetwork.switchA.processingDelay[2] packetReceived:count 0
attr interpolationmode none
attr source packetReceived
attr title "packets received, count"
scalar TestNetwork.switchA.processingDelay[2] packetReceived:sum(packetBytes) 0
attr interpolationmode none
attr source packetReceived
attr title "packets received, sum(packetBytes)"
scalar TestNetwork.switchA.processingDelay[2] packetSent:count 0
attr interpolationmode none
attr source packetSent
attr title "packets sent, count"
scalar TestNetwork.switchA.processingDelay[2] packetSent:sum(packetBytes) 0
attr interpolationmode none
attr source packetSent
attr title "packets sent, sum(packetBytes)"
scalar TestNetwork.workstation1.eth.mac "simulated time" 1
scalar TestNetwork.workstation1.eth.mac full-duplex 1
scalar TestNetwork.workstation1.eth.mac "frames/sec sent" 8127
scalar TestNetwork.workstation1.eth.mac "frames/sec rcvd" 0
scalar TestNetwork.workstation1.eth.mac "bits/sec sent" 98694288
scalar TestNetwork.workstation1.eth.mac "bits/sec rcvd" 0
scalar TestNetwork.workstation1.eth.mac "rx channel idle (%)" 100
scalar TestNetwork.workstation1.eth.mac "rx channel utilization (%)" 0
scalar TestNetwork.workstation1.eth.mac rxPausePkUnits:count 0
attr interpolationmode none
attr title "pause units received, count"
scalar TestNetwork.workstation1.eth.mac rxPausePkUnits:sum 0
attr interpolationmode none
attr title "pause units received, sum"
scalar TestNetwork.workstation1.eth.mac txPausePkUnits:count 0
attr interpolationmode none
attr title "pause units sent, count"
scalar TestNetwork.workstation1.eth.mac txPausePkUnits:sum 0
attr interpolationmode none
attr title "pause units sent, sum"
scalar TestNetwork.workstation1.eth.mac rxPkOk:count 0
attr interpolationmode none
attr source rxPkOk
attr title "packets received OK, count"
scalar TestNetwork.workstation1.eth.mac rxPkOk:sum(packetBytes) 0
attr interpolationmode none
attr source rxPkOk
attr title "packets received OK, sum(packetBytes)"
scalar TestNetwork.workstation1.eth.mac txPk:count 8127
attr interpolationmode none
attr source packetSentToLower
attr title "packets transmitted, count"
scalar TestNetwork.workstation1.eth.mac txPk:sum(packetBytes) 12336786
attr interpolationmode none
attr source packetSentToLower
attr title "packets transmitted, sum(packetBytes)"
scalar TestNetwork.workstation1.eth.mac packetReceivedFromUpper:count 8128
attr interpolationmode none
attr source packetReceivedFromUpper
attr title "packet bytes from higher layer, count"
scalar TestNetwork.workstation1.eth.mac packetReceivedFromUpper:sum(packetBytes) 12338304
attr interpolationmode none
attr source packetReceivedFromUpper
attr title "packet bytes from higher layer, sum(packetBytes)"
scalar TestNetwork.workstation1.eth.mac passedUpPk:count 0
attr interpolationmode none
attr source packetSentToUpper
attr title "packets passed to higher layer, count"
scalar TestNetwork.workstation1.eth.mac passedUpPk:sum(packetBytes) 0
attr interpolationmode none
attr source packetSentToUpper
attr title "packets passed to higher layer, sum(packetBytes)"
scalar TestNetwork.workstation1.eth.mac packetDropIncorrectlyReceived:count 0
attr interpolationmode none
attr source packetDropReasonIsIncorrectlyReceived(packetDropped)
attr title "packet drop: incorrectly received, count"
scalar TestNetwork.workstation1.eth.mac packetDropIncorrectlyReceived:sum(packetBytes) 0
attr interpolationmode none
attr source packetDropReasonIsIncorrectlyReceived(packetDropped)
attr title "packet drop: incorrectly received, sum(packetBytes)"
scalar TestNetwork.workstation1.eth.mac packetDropInterfaceDown:count 0
attr interpolationmode none
attr source packetDropReasonIsInterfaceDown(packetDropped)
attr title "packet drop: interface down, count"
scalar TestNetwork.workstation1.eth.mac packetDropInterfaceDown:sum(packetBytes) 0
attr interpolationmode none
attr source packetDropReasonIsInterfaceDown(packetDropped)
attr title "packet drop: interface down, sum(packetBytes)"
scalar TestNetwork.workstation1.eth.mac packetDropNotAddressedToUs:count 0
attr interpolationmode none
attr source packetDropReasonIsNotAddressedToUs(packetDropped)
attr title "packet drop: not addressed to us, count"
scalar TestNetwork.workstation1.eth.mac packetDropNotAddressedToUs:sum(packetBytes) 0
attr interpolationmode none
attr source packetDropReasonIsNotAddressedToUs(packetDropped)
attr title "packet drop: not addressed to us, sum(packetBytes)"
scalar TestNetwork.workstation1.eth.encap pauseSent:count 0
attr title "pause sent, count"
scalar TestNetwork.workstation1.eth.encap pauseSent:sum 0
attr title "pause sent, sum"
scalar TestNetwork.workstation1.eth.encap decapPk:count 0
attr interpolationmode none
attr source decapPk
attr title "packets decapsulated, count"
scalar TestNetwork.workstation1.eth.encap decapPk:sum(packetBytes) 0
attr interpolationmode none
attr source decapPk
attr title "packets decapsulated, sum(packetBytes)"
scalar TestNetwork.workstation1.eth.encap encapPk:count 8128
attr interpolationmode none
attr source encapPk
attr title "packets encapsulated, count"
scalar TestNetwork.workstation1.eth.encap encapPk:sum(packetBytes) 12192000
attr interpolationmode none
attr source encapPk
attr title "packets encapsulated, sum(packetBytes)"
scalar TestNetwork.workstation1.trafGenQueue sentPk:count 8128
attr interpolationmode none
attr source sentPk
attr title "packets sent, count"
scalar TestNetwork.workstation1.trafGenQueue sentPk:sum(packetBytes) 12159488
attr interpolationmode none
attr source sentPk
attr title "packets sent, sum(packetBytes)"
scalar TestNetwork.workstation1.sink throughput 0
scalar TestNetwork.workstation1.sink packetPerSec 0
scalar TestNetwork.workstation1.sink packetReceived:count 0
attr interpolationmode none
attr source packetReceived
attr title "packets received, count"
scalar TestNetwork.workstation1.sink packetReceived:sum(packetBytes) 0
attr interpolationmode none
attr source packetReceived
attr title "packets received, sum(packetBytes)"
scalar TestNetwork.workstation1.vlanEncap decapPk:count 0
attr interpolationmode none
attr source decapPk
attr title "packets decapsulated, count"
scalar TestNetwork.workstation1.vlanEncap decapPk:sum(packetBytes) 0
attr interpolationmode none
attr source decapPk
attr title "packets decapsulated, sum(packetBytes)"
scalar TestNetwork.workstation1.vlanEncap encapPk:count 8128
attr interpolationmode none
attr source encapPk
attr title "packets encapsulated, count"
scalar TestNetwork.workstation1.vlanEncap encapPk:sum(packetBytes) 12192000
attr interpolationmode none
attr source encapPk
attr title "packets encapsulated, sum(packetBytes)"
scalar TestNetwork.robotController.vlanEncap decapPk:count 0
attr interpolationmode none
attr source decapPk
attr title "packets decapsulated, count"
scalar TestNetwork.robotController.vlanEncap decapPk:sum(packetBytes) 0
attr interpolationmode none
attr source decapPk
attr title "packets decapsulated, sum(packetBytes)"
scalar TestNetwork.robotController.vlanEncap encapPk:count 2500
attr interpolationmode none
attr source encapPk
attr title "packets encapsulated, count"
scalar TestNetwork.robotController.vlanEncap encapPk:sum(packetBytes) 895000
attr interpolationmode none
attr source encapPk
attr title "packets encapsulated, sum(packetBytes)"
scalar TestNetwork.robotController.eth.mac "simulated time" 1
scalar TestNetwork.robotController.eth.mac full-duplex 1
scalar TestNetwork.robotController.eth.mac "frames/sec sent" 2500
scalar TestNetwork.robotController.eth.mac "frames/sec rcvd" 0
scalar TestNetwork.robotController.eth.mac "bits/sec sent" 7520000
scalar TestNetwork.robotController.eth.mac "bits/sec rcvd" 0
scalar TestNetwork.robotController.eth.mac "rx channel idle (%)" 100
scalar TestNetwork.robotController.eth.mac "rx channel utilization (%)" 0
scalar TestNetwork.robotController.eth.mac rxPausePkUnits:count 0
attr interpolationmode none
attr title "pause units received, count"
scalar TestNetwork.robotController.eth.mac rxPausePkUnits:sum 0
attr interpolationmode none
attr title "pause units received, sum"
scalar TestNetwork.robotController.eth.mac txPausePkUnits:count 0
attr interpolationmode none
attr title "pause units sent, count"
scalar TestNetwork.robotController.eth.mac txPausePkUnits:sum 0
attr interpolationmode none
attr title "pause units sent, sum"
scalar TestNetwork.robotController.eth.mac rxPkOk:count 0
attr interpolationmode none
attr source rxPkOk
attr title "packets received OK, count"
scalar TestNetwork.robotController.eth.mac rxPkOk:sum(packetBytes) 0
attr interpolationmode none
attr source rxPkOk
attr title "packets received OK, sum(packetBytes)"
scalar TestNetwork.robotController.eth.mac txPk:count 2500
attr interpolationmode none
attr source packetSentToLower
attr title "packets transmitted, count"
scalar TestNetwork.robotController.eth.mac txPk:sum(packetBytes) 940000
attr interpolationmode none
attr source packetSentToLower
attr title "packets transmitted, sum(packetBytes)"
scalar TestNetwork.robotController.eth.mac packetReceivedFromUpper:count 2500
attr interpolationmode none
attr source packetReceivedFromUpper
attr title "packet bytes from higher layer, count"
scalar TestNetwork.robotController.eth.mac packetReceivedFromUpper:sum(packetBytes) 940000
attr interpolationmode none
attr source packetReceivedFromUpper
attr title "packet bytes from higher layer, sum(packetBytes)"
scalar TestNetwork.robotController.eth.mac passedUpPk:count 0
attr interpolationmode none
attr source packetSentToUpper
attr title "packets passed to higher layer, count"
scalar TestNetwork.robotController.eth.mac passedUpPk:sum(packetBytes) 0
attr interpolationmode none
attr source packetSentToUpper
attr title "packets passed to higher layer, sum(packetBytes)"
scalar TestNetwork.robotController.eth.mac packetDropIncorrectlyReceived:count 0
attr interpolationmode none
attr source packetDropReasonIsIncorrectlyReceived(packetDropped)
attr title "packet drop: incorrectly received, count"
scalar TestNetwork.robotController.eth.mac packetDropIncorrectlyReceived:sum(packetBytes) 0
attr interpolationmode none
attr source packetDropReasonIsIncorrectlyReceived(packetDropped)
attr title "packet drop: incorrectly received, sum(packetBytes)"
scalar TestNetwork.robotController.eth.mac packetDropInterfaceDown:count 0
attr interpolationmode none
attr source packetDropReasonIsInterfaceDown(packetDropped)
attr title "packet drop: interface down, count"
scalar TestNetwork.robotController.eth.mac packetDropInterfaceDown:sum(packetBytes) 0
attr interpolationmode none
attr source packetDropReasonIsInterfaceDown(packetDropped)
attr title "packet drop: interface down, sum(packetBytes)"
scalar TestNetwork.robotController.eth.mac packetDropNotAddressedToUs:count 0
attr interpolationmode none
attr source packetDropReasonIsNotAddressedToUs(packetDropped)
attr title "packet drop: not addressed to us, count"
scalar TestNetwork.robotController.eth.mac packetDropNotAddressedToUs:sum(packetBytes) 0
attr interpolationmode none
attr source packetDropReasonIsNotAddressedToUs(packetDropped)
attr title "packet drop: not addressed to us, sum(packetBytes)"
scalar TestNetwork.robotController.eth.encap pauseSent:count 0
attr title "pause sent, count"
scalar TestNetwork.robotController.eth.encap pauseSent:sum 0
attr title "pause sent, sum"
scalar TestNetwork.robotController.eth.encap decapPk:count 0
attr interpolationmode none
attr source decapPk
attr title "packets decapsulated, count"
scalar TestNetwork.robotController.eth.encap decapPk:sum(packetBytes) 0
attr interpolationmode none
attr source decapPk
attr title "packets decapsulated, sum(packetBytes)"
scalar TestNetwork.robotController.eth.encap encapPk:count 2500
attr interpolationmode none
attr source encapPk
attr title "packets encapsulated, count"
scalar TestNetwork.robotController.eth.encap encapPk:sum(packetBytes) 895000
attr interpolationmode none
attr source encapPk
attr title "packets encapsulated, sum(packetBytes)"
scalar TestNetwork.sink.eth.mac "simulated time" 1
scalar TestNetwork.sink.eth.mac full-duplex 1
scalar TestNetwork.sink.eth.mac "frames/sec sent" 0
scalar TestNetwork.sink.eth.mac "frames/sec rcvd" 9959
scalar TestNetwork.sink.eth.mac "bits/sec sent" 0
scalar TestNetwork.sink.eth.mac "bits/sec rcvd" 98102096
scalar TestNetwork.sink.eth.mac "rx channel idle (%)" 100
scalar TestNetwork.sink.eth.mac "rx channel utilization (%)" 0
statistic TestNetwork.sink.eth.mac pMacDelay:histogram
field count 0
field mean -nan
field stddev -nan
field min -nan
field max -nan
field sum 0
field sqrsum 0
attr interpolationmode none
attr title "pMacDelay, histogram"
bin	-inf	0
bin	0	0
bin	1	0
statistic TestNetwork.sink.eth.mac eMacDelay:histogram
field count 0
field mean -nan
field stddev -nan
field min -nan
field max -nan
field sum 0
field sqrsum 0
attr interpolationmode none
attr title "eMacDelay, histogram"
bin	-inf	0
bin	0	0
bin	1	0
scalar TestNetwork.sink.eth.mac expressFramesEnqueued:count 0
attr interpolationmode none
attr source expressFrameEnqueuedWhileSendingPreemptableSignal
attr title "express frames enqueued, count"
scalar TestNetwork.sink.eth.mac mPacketsFull:count 0
attr interpolationmode none
attr source transmittedPreemptableFullSignal
attr title "mpackets full, count"
scalar TestNetwork.sink.eth.mac mPacketsFinal:count 0
attr interpolationmode none
attr source transmittedPreemptableFinalSignal
attr title "mPackets final, count"
scalar TestNetwork.sink.eth.mac mPacketsNonFinal:count 0
attr interpolationmode none
attr source transmittedPreemptableNonFinalSignal
attr title "mPackets non-final, count"
scalar TestNetwork.sink.eth.mac mPackets:count 0
attr interpolationmode none
attr source transmittedPreemptableFramePartSignal
attr title "mPackets, count"
scalar TestNetwork.sink.eth.mac preemptableFrames:count 0
attr interpolationmode none
attr source transmittedPreemptableFrameSignal
attr title "preemptableFrames, count"
scalar TestNetwork.sink.eth.mac expressFrames:count 0
attr interpolationmode none
attr source transmittedExpressFrameSignal
attr title "expressFrames, count"
scalar TestNetwork.sink.eth.mac preemptions:count 0
attr interpolationmode none
attr source preemptCurrentFrameSignal
attr title "preemptions, count"
scalar TestNetwork.sink.eth.mac rxPausePkUnits:count 0
attr interpolationmode none
attr title "pause units received, count"
scalar TestNetwork.sink.eth.mac rxPausePkUnits:sum 0
attr interpolationmode none
attr title "pause units received, sum"
scalar TestNetwork.sink.eth.mac txPausePkUnits:count 0
attr interpolationmode none
attr title "pause units sent, count"
scalar TestNetwork.sink.eth.mac txPausePkUnits:sum 0
attr interpolationmode none
attr title "pause units sent, sum"
scalar TestNetwork.sink.eth.mac rxPkOk:count 9959
attr interpolationmode none
attr source rxPkOk
attr title "packets received OK, count"
scalar TestNetwork.sink.eth.mac rxPkOk:sum(packetBytes) 12262762
attr interpolationmode none
attr source rxPkOk
attr title "packets received OK, sum(packetBytes)"
scalar TestNetwork.sink.eth.mac txPk:count 0
attr interpolationmode none
attr source packetSentToLower
attr title "packets transmitted, count"
scalar TestNetwork.sink.eth.mac txPk:sum(packetBytes) 0
attr interpolationmode none
attr source packetSentToLower
attr title "packets transmitted, sum(packetBytes)"
scalar TestNetwork.sink.eth.mac packetReceivedFromUpper:count 0
attr interpolationmode none
attr source packetReceivedFromUpper
attr title "packet bytes from higher layer, count"
scalar TestNetwork.sink.eth.mac packetReceivedFromUpper:sum(packetBytes) 0
attr interpolationmode none
attr source packetReceivedFromUpper
attr title "packet bytes from higher layer, sum(packetBytes)"
scalar TestNetwork.sink.eth.mac passedUpPk:count 9959
attr interpolationmode none
attr source packetSentToUpper
attr title "packets passed to higher layer, count"
scalar TestNetwork.sink.eth.mac passedUpPk:sum(packetBytes) 12262762
attr interpolationmode none
attr source packetSentToUpper
attr title "packets passed to higher layer, sum(packetBytes)"
scalar TestNetwork.sink.eth.mac packetDropIncorrectlyReceived:count 0
attr interpolationmode none
attr source packetDropReasonIsIncorrectlyReceived(packetDropped)
attr title "packet drop: incorrectly received, count"
scalar TestNetwork.sink.eth.mac packetDropIncorrectlyReceived:sum(packetBytes) 0
attr interpolationmode none
attr source packetDropReasonIsIncorrectlyReceived(packetDropped)
attr title "packet drop: incorrectly received, sum(packetBytes)"
scalar TestNetwork.sink.eth.mac packetDropInterfaceDown:count 0
attr interpolationmode none
attr source packetDropReasonIsInterfaceDown(packetDropped)
attr title "packet drop: interface down, count"
scalar TestNetwork.sink.eth.mac packetDropInterfaceDown:sum(packetBytes) 0
attr interpolationmode none
attr source packetDropReasonIsInterfaceDown(packetDropped)
attr title "packet drop: interface down, sum(packetBytes)"
scalar TestNetwork.sink.eth.mac packetDropNotAddressedToUs:count 0
attr interpolationmode none
attr source packetDropReasonIsNotAddressedToUs(packetDropped)
attr title "packet drop: not addressed to us, count"
scalar TestNetwork.sink.eth.mac packetDropNotAddressedToUs:sum(packetBytes) 0
attr interpolationmode none
attr source packetDropReasonIsNotAddressedToUs(packetDropped)
attr title "packet drop: not addressed to us, sum(packetBytes)"
scalar TestNetwork.sink.eth.queuing.queues[0] dropPk:count 0
attr interpolationmode none
attr source dropPkByQueue
attr title "dropped packets, count"
scalar TestNetwork.sink.eth.queuing.queues[0] dropPk:sum(packetBytes) 0
attr interpolationmode none
attr source dropPkByQueue
attr title "dropped packets, sum(packetBytes)"
scalar TestNetwork.sink.eth.queuing.queues[0] rcvdPk:count 0
attr interpolationmode none
attr title "received packets, count"
scalar TestNetwork.sink.eth.queuing.queues[0] rcvdPk:sum(packetBytes) 0
attr interpolationmode none
attr title "received packets, sum(packetBytes)"
statistic TestNetwork.sink.eth.queuing.queues[0] queueingTime:histogram
field count 0
field mean -nan
field stddev -nan
field min -nan
field max -nan
field sum 0
field sqrsum 0
attr interpolationmode none
attr title "queueing time, histogram"
bin	-inf	0
bin	0	0
bin	1	0
scalar TestNetwork.sink.eth.queuing.queues[0] queueLength:max 0
attr interpolationmode sample-hold
attr title "queue length, max"
scalar TestNetwork.sink.eth.queuing.queues[0] queueLength:timeavg 0
attr interpolationmode sample-hold
attr title "queue length, timeavg"
scalar TestNetwork.sink.eth.queuing.queues[1] dropPk:count 0
attr interpolationmode none
attr source dropPkByQueue
attr title "dropped packets, count"
scalar TestNetwork.sink.eth.queuing.queues[1] dropPk:sum(packetBytes) 0
attr interpolationmode none
attr source dropPkByQueue
attr title "dropped packets, sum(packetBytes)"
scalar TestNetwork.sink.eth.queuing.queues[1] rcvdPk:count 0
attr interpolationmode none
attr title "received packets, count"
scalar TestNetwork.sink.eth.queuing.queues[1] rcvdPk:sum(packetBytes) 0
attr interpolationmode none
attr title "received packets, sum(packetBytes)"
statistic TestNetwork.sink.eth.queuing.queues[1] queueingTime:histogram
field count 0
field mean -nan
field stddev -nan
field min -nan
field max -nan
field sum 0
field sqrsum 0
attr interpolationmode none
attr title "queueing time, histogram"
bin	-inf	0
bin	0	0
bin	1	0
scalar TestNetwork.sink.eth.queuing.queues[1] queueLength:max 0
attr interpolationmode sample-hold
attr title "queue length, max"
scalar TestNetwork.sink.eth.queuing.queues[1] queueLength:timeavg 0
attr interpolationmode sample-hold
attr title "queue length, timeavg"
scalar TestNetwork.sink.eth.queuing.queues[2] dropPk:count 0
attr interpolationmode none
attr source dropPkByQueue
attr title "dropped packets, count"
scalar TestNetwork.sink.eth.queuing.queues[2] dropPk:sum(packetBytes) 0
attr interpolationmode none
attr source dropPkByQueue
attr title "dropped packets, sum(packetBytes)"
scalar TestNetwork.sink.eth.queuing.queues[2] rcvdPk:count 0
attr interpolationmode none
attr title "received packets, count"
scalar TestNetwork.sink.eth.queuing.queues[2] rcvdPk:sum(packetBytes) 0
attr interpolationmode none
attr title "received packets, sum(packetBytes)"
statistic TestNetwork.sink.eth.queuing.queues[2] queueingTime:histogram
field count 0
field mean -nan
field stddev -nan
field min -nan
field max -nan
field sum 0
field sqrsum 0
attr interpolationmode none
attr title "queueing time, histogram"
bin	-inf	0
bin	0	0
bin	1	0
scalar TestNetwork.sink.eth.queuing.queues[2] queueLength:max 0
attr interpolationmode sample-hold
attr title "queue length, max"
scalar TestNetwork.sink.eth.queuing.queues[2] queueLength:timeavg 0
attr interpolationmode sample-hold
attr title "queue length, timeavg"
scalar TestNetwork.sink.eth.queuing.queues[3] dropPk:count 0
attr interpolationmode none
attr source dropPkByQueue
attr title "dropped packets, count"
scalar TestNetwork.sink.eth.queuing.queues[3] dropPk:sum(packetBytes) 0
attr interpolationmode none
attr source dropPkByQueue
attr title "dropped packets, sum(packetBytes)"
scalar TestNetwork.sink.eth.queuing.queues[3] rcvdPk:count 0
attr interpolationmode none
attr title "received packets, count"
scalar TestNetwork.sink.eth.queuing.queues[3] rcvdPk:sum(packetBytes) 0
attr interpolationmode none
attr title "received packets, sum(packetBytes)"
statistic TestNetwork.sink.eth.queuing.queues[3] queueingTime:histogram
field count 0
field mean -nan
field stddev -nan
field min -nan
field max -nan
field sum 0
field sqrsum 0
attr interpolationmode none
attr title "queueing time, histogram"
bin	-inf	0
bin	0	0
bin	1	0
scalar TestNetwork.sink.eth.queuing.queues[3] queueLength:max 0
attr interpolationmode sample-hold
attr title "queue length, max"
scalar TestNetwork.sink.eth.queuing.queues[3] queueLength:timeavg 0
attr interpolationmode sample-hold
attr title "queue length, timeavg"
scalar TestNetwork.sink.eth.queuing.queues[4] dropPk:count 0
attr interpolationmode none
attr source dropPkByQueue
attr title "dropped packets, count"
scalar TestNetwork.sink.eth.queuing.queues[4] dropPk:sum(packetBytes) 0
attr interpolationmode none
attr source dropPkByQueue
attr title "dropped packets, sum(packetBytes)"
scalar TestNetwork.sink.eth.queuing.queues[4] rcvdPk:count 0
attr interpolationmode none
attr title "received packets, count"
scalar TestNetwork.sink.eth.queuing.queues[4] rcvdPk:sum(packetBytes) 0
attr interpolationmode none
attr title "received packets, sum(packetBytes)"
statistic TestNetwork.sink.eth.queuing.queues[4] queueingTime:histogram
field count 0
field mean -nan
field stddev -nan
field min -nan
field max -nan
field sum 0
field sqrsum 0
attr interpolationmode none
attr title "queueing time, histogram"
bin	-inf	0
bin	0	0
bin	1	0
scalar TestNetwork.sink.eth.queuing.queues[4] queueLength:max 0
attr interpolationmode sample-hold
attr title "queue length, max"
scalar TestNetwork.sink.eth.queuing.queues[4] queueLength:timeavg 0
attr interpolationmode sample-hold
attr title "queue length, timeavg"
scalar TestNetwork.sink.eth.queuing.queues[5] dropPk:count 0
attr interpolationmode none
attr source dropPkByQueue
attr title "dropped packets, count"
scalar TestNetwork.sink.eth.queuing.queues[5] dropPk:sum(packetBytes) 0
attr interpolationmode none
attr source dropPkByQueue
attr title "dropped packets, sum(packetBytes)"
scalar TestNetwork.sink.eth.queuing.queues[5] rcvdPk:count 0
attr interpolationmode none
attr title "received packets, count"
scalar TestNetwork.sink.eth.queuing.queues[5] rcvdPk:sum(packetBytes) 0
attr interpolationmode none
attr title "received packets, sum(packetBytes)"
statistic TestNetwork.sink.eth.queuing.queues[5] queueingTime:histogram
field count 0
field mean -nan
field stddev -nan
field min -nan
field max -nan
field sum 0
field sqrsum 0
attr interpolationmode none
attr title "queueing time, histogram"
bin	-inf	0
bin	0	0
bin	1	0
scalar TestNetwork.sink.eth.queuing.queues[5] queueLength:max 0
attr interpolationmode sample-hold
attr title "queue length, max"
scalar TestNetwork.sink.eth.queuing.queues[5] queueLength:timeavg 0
attr interpolationmode sample-hold
attr title "queue length, timeavg"
scalar TestNetwork.sink.eth.queuing.queues[6] dropPk:count 0
attr interpolationmode none
attr source dropPkByQueue
attr title "dropped packets, count"
scalar TestNetwork.sink.eth.queuing.queues[6] dropPk:sum(packetBytes) 0
attr interpolationmode none
attr source dropPkByQueue
attr title "dropped packets, sum(packetBytes)"
scalar TestNetwork.sink.eth.queuing.queues[6] rcvdPk:count 0
attr interpolationmode none
attr title "received packets, count"
scalar TestNetwork.sink.eth.queuing.queues[6] rcvdPk:sum(packetBytes) 0
attr interpolationmode none
attr title "received packets, sum(packetBytes)"
statistic TestNetwork.sink.eth.queuing.queues[6] queueingTime:histogram
field count 0
field mean -nan
field stddev -nan
field min -nan
field max -nan
field sum 0
field sqrsum 0
attr interpolationmode none
attr title "queueing time, histogram"
bin	-inf	0
bin	0	0
bin	1	0
scalar TestNetwork.sink.eth.queuing.queues[6] queueLength:max 0
attr interpolationmode sample-hold
attr title "queue length, max"
scalar TestNetwork.sink.eth.queuing.queues[6] queueLength:timeavg 0
attr interpolationmode sample-hold
attr title "queue length, timeavg"
scalar TestNetwork.sink.eth.queuing.queues[7] dropPk:count 0
attr interpolationmode none
attr source dropPkByQueue
attr title "dropped packets, count"
scalar TestNetwork.sink.eth.queuing.queues[7] dropPk:sum(packetBytes) 0
attr interpolationmode none
attr source dropPkByQueue
attr title "dropped packets, sum(packetBytes)"
scalar TestNetwork.sink.eth.queuing.queues[7] rcvdPk:count 0
attr interpolationmode none
attr title "received packets, count"
scalar TestNetwork.sink.eth.queuing.queues[7] rcvdPk:sum(packetBytes) 0
attr interpolationmode none
attr title "received packets, sum(packetBytes)"
statistic TestNetwork.sink.eth.queuing.queues[7] queueingTime:histogram
field count 0
field mean -nan
field stddev -nan
field min -nan
field max -nan
field sum 0
field sqrsum 0
attr interpolationmode none
attr title "queueing time, histogram"
bin	-inf	0
bin	0	0
bin	1	0
scalar TestNetwork.sink.eth.queuing.queues[7] queueLength:max 0
attr interpolationmode sample-hold
attr title "queue length, max"
scalar TestNetwork.sink.eth.queuing.queues[7] queueLength:timeavg 0
attr interpolationmode sample-hold
attr title "queue length, timeavg"
scalar TestNetwork.sink.eth.vlanEncapE decapPk:count 9959
attr interpolationmode none
attr source decapPk
attr title "packets decapsulated, count"
scalar TestNetwork.sink.eth.vlanEncapE decapPk:sum(packetBytes) 12043664
attr interpolationmode none
attr source decapPk
attr title "packets decapsulated, sum(packetBytes)"
scalar TestNetwork.sink.eth.vlanEncapE encapPk:count 0
attr interpolationmode none
attr source encapPk
attr title "packets encapsulated, count"
scalar TestNetwork.sink.eth.vlanEncapE encapPk:sum(packetBytes) 0
attr interpolationmode none
attr source encapPk
attr title "packets encapsulated, sum(packetBytes)"
scalar TestNetwork.sink.eth.etherEncapE pauseSent:count 0
attr title "pause sent, count"
scalar TestNetwork.sink.eth.etherEncapE pauseSent:sum 0
attr title "pause sent, sum"
scalar TestNetwork.sink.eth.etherEncapE decapPk:count 9959
attr interpolationmode none
attr source decapPk
attr title "packets decapsulated, count"
scalar TestNetwork.sink.eth.etherEncapE decapPk:sum(packetBytes) 12083500
attr interpolationmode none
attr source decapPk
attr title "packets decapsulated, sum(packetBytes)"
scalar TestNetwork.sink.eth.etherEncapE encapPk:count 0
attr interpolationmode none
attr source encapPk
attr title "packets encapsulated, count"
scalar TestNetwork.sink.eth.etherEncapE encapPk:sum(packetBytes) 0
attr interpolationmode none
attr source encapPk
attr title "packets encapsulated, sum(packetBytes)"
scalar TestNetwork.sink.eth.vlanEncapP decapPk:count 0
attr interpolationmode none
attr source decapPk
attr title "packets decapsulated, count"
scalar TestNetwork.sink.eth.vlanEncapP decapPk:sum(packetBytes) 0
attr interpolationmode none
attr source decapPk
attr title "packets decapsulated, sum(packetBytes)"
scalar TestNetwork.sink.eth.vlanEncapP encapPk:count 0
attr interpolationmode none
attr source encapPk
attr title "packets encapsulated, count"
scalar TestNetwork.sink.eth.vlanEncapP encapPk:sum(packetBytes) 0
attr interpolationmode none
attr source encapPk
attr title "packets encapsulated, sum(packetBytes)"
scalar TestNetwork.sink.eth.etherEncapP pauseSent:count 0
attr title "pause sent, count"
scalar TestNetwork.sink.eth.etherEncapP pauseSent:sum 0
attr title "pause sent, sum"
scalar TestNetwork.sink.eth.etherEncapP decapPk:count 0
attr interpolationmode none
attr source decapPk
attr title "packets decapsulated, count"
scalar TestNetwork.sink.eth.etherEncapP decapPk:sum(packetBytes) 0
attr interpolationmode none
attr source decapPk
attr title "packets decapsulated, sum(packetBytes)"
scalar TestNetwork.sink.eth.etherEncapP encapPk:count 0
attr interpolationmode none
attr source encapPk
attr title "packets encapsulated, count"
scalar TestNetwork.sink.eth.etherEncapP encapPk:sum(packetBytes) 0
attr interpolationmode none
attr source encapPk
attr title "packets encapsulated, sum(packetBytes)"
scalar TestNetwork.sink.app packetReceived:count 9959
attr interpolationmode none
attr source packetReceived
attr title "packets received, count"
scalar TestNetwork.sink.app packetReceived:sum(packetBytes) 12043664
attr interpolationmode none
attr source packetReceived
attr title "packets received, sum(packetBytes)"
statistic TestNetwork.sink.app endToEndDelay:histogram
field count 9959
field mean 0.0031044711236067
field stddev 0.0018098648787718
field min 6.664e-05
field max 0.0043028
field sum 30.917427919999
field sqrsum 0.12860079533101
attr interpolationmode none
attr source dataAge(packetReceived)
attr title "end-to-end delay, histogram"
attr unit s
bin	-inf	0
bin	0	2500
bin	0.0001	0
bin	0.0002	5
bin	0.0003	9
bin	0.0004	9
bin	0.0005	9
bin	0.0006	9
bin	0.0007	9
bin	0.0008	9
bin	0.0009	9
bin	0.001	9
bin	0.0011	9
bin	0.0012	9
bin	0.0013	9
bin	0.0014	9
bin	0.0015	12
bin	0.0016	9
bin	0.0017	9
bin	0.0018	8
bin	0.0019	9
bin	0.002	9
bin	0.0021	9
bin	0.0022	9
bin	0.0023	9
bin	0.0024	9
bin	0.0025	9
bin	0.0026	9
bin	0.0027	9
bin	0.0028	9
bin	0.0029	9
bin	0.003	9
bin	0.0031	9
bin	0.0032	9
bin	0.0033	9
bin	0.0034	9
bin	0.0035	9
bin	0.0036	12
bin	0.0037	9
bin	0.0038	9
bin	0.0039	8
bin	0.004	9
bin	0.0041	2492
bin	0.0042	4575
bin	0.0043	41
bin	0.0044	0
bin	0.0045	0
bin	0.0046	0
bin	0.0047	0
bin	0.0048	0
bin	0.0049	0
bin	0.005	0
bin	0.0051	0
bin	0.0052	0
bin	0.0053	0
bin	0.0054	0
scalar TestNetwork.sink.app packetSent:count 0
attr interpolationmode none
attr source packetSent
attr title "packets sent, count"
scalar TestNetwork.sink.app packetSent:sum(packetBytes) 0
attr interpolationmode none
attr source packetSent
attr title "packets sent, sum(packetBytes)"

