version 2
run General-0-20190211-14:16:50-23555
attr configname General
attr datetime 20190211-14:16:50
attr experiment General
attr inifile 05_Gating.ini
attr iterationvars ""
attr iterationvarsf ""
attr measurement ""
attr network TestNetwork
attr processid 23555
attr repetition 0
attr replication #0
attr resultdir 05_results_Gating
attr runnumber 0
attr seedset 0
param **.displayAddresses true
param **.verbose true
param **.promiscuous true
param **.registerProtocol true
param **.*.clock.clockRate "\"1us\""
param **.robotController.eth.mac.address "\"00-00-00-00-00-01\""
param **.workstation1.eth.mac.address "\"00-00-00-00-00-02\""
param **.sink.eth.mac.address "\"00-00-00-00-00-03\""
param **.switch*.processingDelay[*].delay 5us
param **.filteringDatabase.database "xmldoc(\"05_results_Gating/05_Gating_Routing.xml\", \"/filteringDatabases/\")"
param **.filteringDatabase.cycle "xmldoc(\"05_results_Gating/05_Gating_Schedule.xml\", \"/schedule/\")"
param **.gateController.initialSchedule "xmldoc(\"05_results_Gating/05_Gating_Schedule.xml\")"
param **.gateController.enableHoldAndRelease false
param **.switch*.queuing[*].tsAlgorithms[0].typename "\"StrictPriority\""
param **.switch*.queuing[*].tsAlgorithms[1].typename "\"StrictPriority\""
param **.switch*.queuing[*].tsAlgorithms[2].typename "\"StrictPriority\""
param **.switch*.queuing[*].tsAlgorithms[3].typename "\"StrictPriority\""
param **.switch*.queuing[*].tsAlgorithms[4].typename "\"StrictPriority\""
param **.switch*.queuing[*].tsAlgorithms[5].typename "\"StrictPriority\""
param **.switch*.queuing[*].tsAlgorithms[6].typename "\"StrictPriority\""
param **.switch*.queuing[*].tsAlgorithms[7].typename "\"StrictPriority\""
param **.queues[0].expressQueue false
param **.queues[1].expressQueue false
param **.queues[2].expressQueue false
param **.queues[3].expressQueue false
param **.queues[4].expressQueue false
param **.queues[5].expressQueue false
param **.queues[6].expressQueue false
param **.queues[7].expressQueue false
param **.queues[*].bufferCapacity 363360b
param **.switchA.eth[2].mac.enablePreemptingFrames false
param **.robotController.tsn_app.initialSchedule "xmldoc(\"05_results_Gating/05_Gating_Schedule.xml\")"
param **.workstation1.trafGenQueue.destAddress "\"00-00-00-00-00-03\""
param **.workstation1.trafGenQueue.packetLength 470Byte
param **.workstation1.trafGenQueue.vlanTagEnabled true
param **.workstation1.trafGenQueue.pcp 6
param **.sink.app.numPacketsPerBurst 0
param **.sink.app.sendInterval 1ms
param **.sink.app.packetLength 100B

vector 0 TestNetwork.switchA.eth[0].queuing.queues[0] queueLength:vector ETV
attr interpolationmode sample-hold
attr title "queue length, vector"
vector 1 TestNetwork.switchA.eth[0].queuing.queues[1] queueLength:vector ETV
attr interpolationmode sample-hold
attr title "queue length, vector"
vector 2 TestNetwork.switchA.eth[0].queuing.queues[2] queueLength:vector ETV
attr interpolationmode sample-hold
attr title "queue length, vector"
vector 3 TestNetwork.switchA.eth[0].queuing.queues[3] queueLength:vector ETV
attr interpolationmode sample-hold
attr title "queue length, vector"
vector 4 TestNetwork.switchA.eth[0].queuing.queues[4] queueLength:vector ETV
attr interpolationmode sample-hold
attr title "queue length, vector"
vector 5 TestNetwork.switchA.eth[0].queuing.queues[5] queueLength:vector ETV
attr interpolationmode sample-hold
attr title "queue length, vector"
vector 6 TestNetwork.switchA.eth[0].queuing.queues[6] queueLength:vector ETV
attr interpolationmode sample-hold
attr title "queue length, vector"
vector 7 TestNetwork.switchA.eth[0].queuing.queues[7] queueLength:vector ETV
attr interpolationmode sample-hold
attr title "queue length, vector"
vector 8 TestNetwork.switchA.eth[1].queuing.queues[0] queueLength:vector ETV
attr interpolationmode sample-hold
attr title "queue length, vector"
vector 9 TestNetwork.switchA.eth[1].queuing.queues[1] queueLength:vector ETV
attr interpolationmode sample-hold
attr title "queue length, vector"
vector 10 TestNetwork.switchA.eth[1].queuing.queues[2] queueLength:vector ETV
attr interpolationmode sample-hold
attr title "queue length, vector"
vector 11 TestNetwork.switchA.eth[1].queuing.queues[3] queueLength:vector ETV
attr interpolationmode sample-hold
attr title "queue length, vector"
vector 12 TestNetwork.switchA.eth[1].queuing.queues[4] queueLength:vector ETV
attr interpolationmode sample-hold
attr title "queue length, vector"
vector 13 TestNetwork.switchA.eth[1].queuing.queues[5] queueLength:vector ETV
attr interpolationmode sample-hold
attr title "queue length, vector"
vector 14 TestNetwork.switchA.eth[1].queuing.queues[6] queueLength:vector ETV
attr interpolationmode sample-hold
attr title "queue length, vector"
vector 15 TestNetwork.switchA.eth[1].queuing.queues[7] queueLength:vector ETV
attr interpolationmode sample-hold
attr title "queue length, vector"
vector 16 TestNetwork.switchA.eth[2].queuing.queues[0] queueLength:vector ETV
attr interpolationmode sample-hold
attr title "queue length, vector"
vector 17 TestNetwork.switchA.eth[2].queuing.queues[1] queueLength:vector ETV
attr interpolationmode sample-hold
attr title "queue length, vector"
vector 18 TestNetwork.switchA.eth[2].queuing.queues[2] queueLength:vector ETV
attr interpolationmode sample-hold
attr title "queue length, vector"
vector 19 TestNetwork.switchA.eth[2].queuing.queues[3] queueLength:vector ETV
attr interpolationmode sample-hold
attr title "queue length, vector"
vector 20 TestNetwork.switchA.eth[2].queuing.queues[4] queueLength:vector ETV
attr interpolationmode sample-hold
attr title "queue length, vector"
vector 21 TestNetwork.switchA.eth[2].queuing.queues[5] queueLength:vector ETV
attr interpolationmode sample-hold
attr title "queue length, vector"
vector 22 TestNetwork.switchA.eth[2].queuing.queues[6] queueLength:vector ETV
attr interpolationmode sample-hold
attr title "queue length, vector"
vector 23 TestNetwork.switchA.eth[2].queuing.queues[7] queueLength:vector ETV
attr interpolationmode sample-hold
attr title "queue length, vector"
vector 24 TestNetwork.sink.eth.queuing.queues[0] queueLength:vector ETV
attr interpolationmode sample-hold
attr title "queue length, vector"
vector 25 TestNetwork.sink.eth.queuing.queues[1] queueLength:vector ETV
attr interpolationmode sample-hold
attr title "queue length, vector"
vector 26 TestNetwork.sink.eth.queuing.queues[2] queueLength:vector ETV
attr interpolationmode sample-hold
attr title "queue length, vector"
vector 27 TestNetwork.sink.eth.queuing.queues[3] queueLength:vector ETV
attr interpolationmode sample-hold
attr title "queue length, vector"
vector 28 TestNetwork.sink.eth.queuing.queues[4] queueLength:vector ETV
attr interpolationmode sample-hold
attr title "queue length, vector"
vector 29 TestNetwork.sink.eth.queuing.queues[5] queueLength:vector ETV
attr interpolationmode sample-hold
attr title "queue length, vector"
vector 30 TestNetwork.sink.eth.queuing.queues[6] queueLength:vector ETV
attr interpolationmode sample-hold
attr title "queue length, vector"
vector 31 TestNetwork.sink.eth.queuing.queues[7] queueLength:vector ETV
attr interpolationmode sample-hold
attr title "queue length, vector"
vector 32 TestNetwork.workstation1.trafGenQueue sentPk:vector(packetBytes) ETV
attr interpolationmode none
attr source sentPk
attr title "packets sent, vector(packetBytes)"
vector 33 TestNetwork.workstation1.vlanEncap encapPk:vector(packetBytes) ETV
attr interpolationmode none
attr source encapPk
attr title "packets encapsulated, vector(packetBytes)"
vector 34 TestNetwork.workstation1.eth.encap encapPk:vector(packetBytes) ETV
attr interpolationmode none
attr source encapPk
attr title "packets encapsulated, vector(packetBytes)"
vector 35 TestNetwork.robotController.vlanEncap encapPk:vector(packetBytes) ETV
attr interpolationmode none
attr source encapPk
attr title "packets encapsulated, vector(packetBytes)"
vector 36 TestNetwork.workstation1.eth.mac packetReceivedFromUpper:vector(packetBytes) ETV
attr interpolationmode none
attr source packetReceivedFromUpper
attr title "packet bytes from higher layer, vector(packetBytes)"
vector 37 TestNetwork.robotController.eth.encap encapPk:vector(packetBytes) ETV
attr interpolationmode none
attr source encapPk
attr title "packets encapsulated, vector(packetBytes)"
vector 38 TestNetwork.robotController.eth.mac packetReceivedFromUpper:vector(packetBytes) ETV
attr interpolationmode none
attr source packetReceivedFromUpper
attr title "packet bytes from higher layer, vector(packetBytes)"
vector 39 TestNetwork.workstation1.eth.mac txPk:vector(packetBytes) ETV
attr interpolationmode none
attr source packetSentToLower
attr title "packets transmitted, vector(packetBytes)"
vector 40 TestNetwork.robotController.eth.mac txPk:vector(packetBytes) ETV
attr interpolationmode none
attr source packetSentToLower
attr title "packets transmitted, vector(packetBytes)"
vector 41 TestNetwork.switchA.eth[1].mac receivedExpressFrame:vector(packetBytes) ETV
attr interpolationmode none
attr title "receivedExpressFrame, vector(packetBytes)"
vector 42 TestNetwork.switchA.eth[1].mac rxPkOk:vector(packetBytes) ETV
attr interpolationmode none
attr source rxPkOk
attr title "packets received OK, vector(packetBytes)"
vector 43 TestNetwork.switchA.eth[1].mac passedUpPk:vector(packetBytes) ETV
attr interpolationmode none
attr source packetSentToUpper
attr title "packets passed to higher layer, vector(packetBytes)"
vector 44 TestNetwork.switchA.eth[0].mac receivedExpressFrame:vector(packetBytes) ETV
attr interpolationmode none
attr title "receivedExpressFrame, vector(packetBytes)"
vector 45 TestNetwork.switchA.eth[0].mac rxPkOk:vector(packetBytes) ETV
attr interpolationmode none
attr source rxPkOk
attr title "packets received OK, vector(packetBytes)"
vector 46 TestNetwork.switchA.eth[0].mac passedUpPk:vector(packetBytes) ETV
attr interpolationmode none
attr source packetSentToUpper
attr title "packets passed to higher layer, vector(packetBytes)"
vector 47 TestNetwork.switchA.eth[1].etherEncapE decapPk:vector(packetBytes) ETV
attr interpolationmode none
attr source decapPk
attr title "packets decapsulated, vector(packetBytes)"
vector 48 TestNetwork.switchA.eth[0].etherEncapE decapPk:vector(packetBytes) ETV
attr interpolationmode none
attr source decapPk
attr title "packets decapsulated, vector(packetBytes)"
vector 49 TestNetwork.switchA.eth[1].vlanEncapE decapPk:vector(packetBytes) ETV
attr interpolationmode none
attr source decapPk
attr title "packets decapsulated, vector(packetBytes)"
vector 50 TestNetwork.switchA.eth[0].vlanEncapE decapPk:vector(packetBytes) ETV
attr interpolationmode none
attr source decapPk
attr title "packets decapsulated, vector(packetBytes)"
vector 51 TestNetwork.switchA.processingDelay[1] packetReceived:vector(packetBytes) ETV
attr interpolationmode none
attr source packetReceived
attr title "packets received, vector(packetBytes)"
vector 52 TestNetwork.switchA.processingDelay[1] delay:vector ETV
attr interpolationmode none
attr source delay
attr title "packet delay, vector"
vector 53 TestNetwork.switchA.processingDelay[0] packetReceived:vector(packetBytes) ETV
attr interpolationmode none
attr source packetReceived
attr title "packets received, vector(packetBytes)"
vector 54 TestNetwork.switchA.processingDelay[0] delay:vector ETV
attr interpolationmode none
attr source delay
attr title "packet delay, vector"
vector 55 TestNetwork.switchA.processingDelay[1] packetSent:vector(packetBytes) ETV
attr interpolationmode none
attr source packetSent
attr title "packets sent, vector(packetBytes)"
vector 56 TestNetwork.switchA.processingDelay[0] packetSent:vector(packetBytes) ETV
attr interpolationmode none
attr source packetSent
attr title "packets sent, vector(packetBytes)"
vector 57 TestNetwork.switchA.eth[2].queuing.queues[6] rcvdPk:vector(packetBytes) ETV
attr interpolationmode none
attr title "received packets, vector(packetBytes)"
vector 58 TestNetwork.switchA.eth[2].queuing.queues[7] rcvdPk:vector(packetBytes) ETV
attr interpolationmode none
attr title "received packets, vector(packetBytes)"
vector 59 TestNetwork.switchA.eth[2].queuing.queues[6] queueingTime:vector ETV
attr interpolationmode none
attr title "queueing time, vector"
vector 60 TestNetwork.switchA.eth[2].vlanEncapP encapPk:vector(packetBytes) ETV
attr interpolationmode none
attr source encapPk
attr title "packets encapsulated, vector(packetBytes)"
vector 61 TestNetwork.switchA.eth[2].etherEncapP encapPk:vector(packetBytes) ETV
attr interpolationmode none
attr source encapPk
attr title "packets encapsulated, vector(packetBytes)"
vector 62 TestNetwork.switchA.eth[2].mac packetReceivedFromUpper:vector(packetBytes) ETV
attr interpolationmode none
attr source packetReceivedFromUpper
attr title "packet bytes from higher layer, vector(packetBytes)"
vector 63 TestNetwork.switchA.eth[2].mac eMacDelay:vector ETV
attr interpolationmode none
attr title "eMacDelay, vector"
vector 64 TestNetwork.switchA.eth[2].mac txPk:vector(packetBytes) ETV
attr interpolationmode none
attr source packetSentToLower
attr title "packets transmitted, vector(packetBytes)"
vector 65 TestNetwork.sink.eth.mac receivedExpressFrame:vector(packetBytes) ETV
attr interpolationmode none
attr title "receivedExpressFrame, vector(packetBytes)"
vector 66 TestNetwork.sink.eth.mac rxPkOk:vector(packetBytes) ETV
attr interpolationmode none
attr source rxPkOk
attr title "packets received OK, vector(packetBytes)"
vector 67 TestNetwork.sink.eth.mac passedUpPk:vector(packetBytes) ETV
attr interpolationmode none
attr source packetSentToUpper
attr title "packets passed to higher layer, vector(packetBytes)"
vector 68 TestNetwork.sink.eth.etherEncapE decapPk:vector(packetBytes) ETV
attr interpolationmode none
attr source decapPk
attr title "packets decapsulated, vector(packetBytes)"
vector 69 TestNetwork.sink.eth.vlanEncapE decapPk:vector(packetBytes) ETV
attr interpolationmode none
attr source decapPk
attr title "packets decapsulated, vector(packetBytes)"
vector 70 TestNetwork.sink.app packetReceived:vector(packetBytes) ETV
attr interpolationmode none
attr source packetReceived
attr title "packets received, vector(packetBytes)"
vector 71 TestNetwork.sink.app endToEndDelay:vector ETV
attr interpolationmode none
attr source dataAge(packetReceived)
attr title "end-to-end delay, vector"
attr unit s
0	0	0	0
1	0	0	0
2	0	0	0
3	0	0	0
4	0	0	0
5	0	0	0
6	0	0	0
7	0	0	0
8	0	0	0
9	0	0	0
10	0	0	0
11	0	0	0
12	0	0	0
13	0	0	0
14	0	0	0
15	0	0	0
16	0	0	0
17	0	0	0
18	0	0	0
19	0	0	0
20	0	0	0
21	0	0	0
22	0	0	0
22	40	0.0000451	1
22	49	0.0000451	0
22	83	0.00008606	1
22	89	0.00008606	0
22	137	0.00012702	1
22	143	0.00012702	0
22	191	0.00016798	1
22	197	0.00016798	0
22	245	0.00020894	1
22	251	0.00020894	0
23	0	0	0
23	41	0.0000451	1
23	107	0.0000951	2
23	161	0.0001451	3
23	215	0.0001951	4
24	0	0	0
25	0	0	0
26	0	0	0
27	0	0	0
28	0	0	0
29	0	0	0
30	0	0	0
31	0	0	0
32	0	0	470
32	29	0.00004096	470
32	69	0.00008192	470
32	123	0.00012288	470
32	177	0.00016384	470
32	231	0.0002048	470
33	2	0	474
33	31	0.00004096	474
33	70	0.00008192	474
33	124	0.00012288	474
33	178	0.00016384	474
33	232	0.0002048	474
34	8	0	474
34	32	0.00004096	474
34	71	0.00008192	474
34	125	0.00012288	474
34	179	0.00016384	474
34	233	0.0002048	474
35	9	0	474
35	60	0.00005	474
35	114	0.0001	474
35	168	0.00015	474
35	222	0.0002	474
36	10	0	492
36	33	0.00004096	492
36	72	0.00008192	492
36	126	0.00012288	492
36	180	0.00016384	492
36	234	0.0002048	492
37	11	0	474
37	61	0.00005	474
37	115	0.0001	474
37	169	0.00015	474
37	223	0.0002	474
38	12	0	492
38	62	0.00005	492
38	116	0.0001	492
38	170	0.00015	492
38	224	0.0002	492
39	17	0.00004	492
39	63	0.00008096	492
39	117	0.00012192	492
39	171	0.00016288	492
39	225	0.00020384	492
40	18	0.00004	492
40	97	0.00009	492
40	151	0.00014	492
40	205	0.00019	492
41	19	0.0000401	500
41	64	0.00008106	500
41	118	0.00012202	500
41	172	0.00016298	500
41	226	0.00020394	500
42	19	0.0000401	492
42	64	0.00008106	492
42	118	0.00012202	492
42	172	0.00016298	492
42	226	0.00020394	492
43	19	0.0000401	492
43	64	0.00008106	492
43	118	0.00012202	492
43	172	0.00016298	492
43	226	0.00020394	492
44	20	0.0000401	500
44	98	0.0000901	500
44	152	0.0001401	500
44	206	0.0001901	500
45	20	0.0000401	492
45	98	0.0000901	492
45	152	0.0001401	492
45	206	0.0001901	492
46	20	0.0000401	492
46	98	0.0000901	492
46	152	0.0001401	492
46	206	0.0001901	492
47	21	0.0000401	474
47	65	0.00008106	474
47	119	0.00012202	474
47	173	0.00016298	474
47	227	0.00020394	474
48	22	0.0000401	474
48	99	0.0000901	474
48	153	0.0001401	474
48	207	0.0001901	474
49	23	0.0000401	470
49	66	0.00008106	470
49	120	0.00012202	470
49	174	0.00016298	470
49	228	0.00020394	470
50	24	0.0000401	470
50	100	0.0000901	470
50	154	0.0001401	470
50	208	0.0001901	470
51	27	0.0000401	470
51	68	0.00008106	470
51	122	0.00012202	470
51	176	0.00016298	470
51	230	0.00020394	470
52	27	0.0000401	5e-06
52	68	0.00008106	5e-06
52	122	0.00012202	5e-06
52	176	0.00016298	5e-06
52	230	0.00020394	5e-06
53	28	0.0000401	470
53	102	0.0000901	470
53	156	0.0001401	470
53	210	0.0001901	470
54	28	0.0000401	5e-06
54	102	0.0000901	5e-06
54	156	0.0001401	5e-06
54	210	0.0001901	5e-06
55	34	0.0000451	470
55	79	0.00008606	470
55	133	0.00012702	470
55	187	0.00016798	470
55	241	0.00020894	470
56	35	0.0000451	470
56	104	0.0000951	470
56	158	0.0001451	470
56	212	0.0001951	470
57	40	0.0000451	470
57	83	0.00008606	470
57	137	0.00012702	470
57	191	0.00016798	470
57	245	0.00020894	470
58	41	0.0000451	470
58	107	0.0000951	470
58	161	0.0001451	470
58	215	0.0001951	470
59	49	0.0000451	0
59	89	0.00008606	0
59	143	0.00012702	0
59	197	0.00016798	0
59	251	0.00020894	0
60	53	0.0000451	474
60	93	0.00008606	474
60	147	0.00012702	474
60	201	0.00016798	474
60	255	0.00020894	474
61	54	0.0000451	474
61	94	0.00008606	474
61	148	0.00012702	474
61	202	0.00016798	474
61	256	0.00020894	474
62	55	0.0000451	492
62	95	0.00008606	492
62	149	0.00012702	492
62	203	0.00016798	492
62	257	0.00020894	492
63	55	0.0000451	4.51e-05
63	95	0.00008606	8.606e-05
63	149	0.00012702	0.00012702
63	203	0.00016798	0.00016798
63	257	0.00020894	0.00020894
64	73	0.0000851	492
64	127	0.00012606	492
64	181	0.00016702	492
64	235	0.00020798	492
65	74	0.0000852	500
65	128	0.00012616	500
65	182	0.00016712	500
65	236	0.00020808	500
66	74	0.0000852	492
66	128	0.00012616	492
66	182	0.00016712	492
66	236	0.00020808	492
67	74	0.0000852	492
67	128	0.00012616	492
67	182	0.00016712	492
67	236	0.00020808	492
68	75	0.0000852	474
68	129	0.00012616	474
68	183	0.00016712	474
68	237	0.00020808	474
69	76	0.0000852	470
69	130	0.00012616	470
69	184	0.00016712	470
69	238	0.00020808	470
70	78	0.0000852	470
70	132	0.00012616	470
70	186	0.00016712	470
70	240	0.00020808	470
71	78	0.0000852	8.52e-05
71	132	0.00012616	8.52e-05
71	186	0.00016712	8.52e-05
71	240	0.00020808	8.52e-05

