version 2
run General-0-20190214-12:32:00-16047
attr configname General
attr datetime 20190214-12:32:00
attr experiment General
attr inifile 06_Scheduling.ini
attr iterationvars ""
attr iterationvarsf ""
attr measurement ""
attr network TestNetwork
attr processid 16047
attr repetition 0
attr replication #0
attr resultdir 06_results_Scheduling
attr runnumber 0
attr seedset 0
param **.displayAddresses true
param **.verbose true
param **.promiscuous true
param **.registerProtocol true
param **.*.clock.clockRate "\"1us\""
param **.robotController.eth.mac.address "\"00-00-00-00-00-01\""
param **.workstation1.eth.mac.address "\"00-00-00-00-00-02\""
param **.sink.eth.mac.address "\"00-00-00-00-00-03\""
param **.switch*.processingDelay[*].delay 5us
param **.filteringDatabase.database "xmldoc(\"06_results_Scheduling/06_Scheduling_Routing.xml\", \"/filteringDatabases/\")"
param **.filteringDatabase.cycle "xmldoc(\"06_results_Scheduling/06_Scheduling_Schedule.xml\", \"/schedule/\")"
param **.gateController.initialSchedule "xmldoc(\"06_results_Scheduling/06_Scheduling_Schedule.xml\")"
param **.gateController.enableHoldAndRelease false
param **.switch*.queuing[*].tsAlgorithms[0].typename "\"StrictPriority\""
param **.switch*.queuing[*].tsAlgorithms[1].typename "\"StrictPriority\""
param **.switch*.queuing[*].tsAlgorithms[2].typename "\"StrictPriority\""
param **.switch*.queuing[*].tsAlgorithms[3].typename "\"StrictPriority\""
param **.switch*.queuing[*].tsAlgorithms[4].typename "\"StrictPriority\""
param **.switch*.queuing[*].tsAlgorithms[5].typename "\"StrictPriority\""
param **.switch*.queuing[*].tsAlgorithms[6].typename "\"StrictPriority\""
param **.switch*.queuing[*].tsAlgorithms[7].typename "\"StrictPriority\""
param **.queues[0].expressQueue false
param **.queues[1].expressQueue false
param **.queues[2].expressQueue false
param **.queues[3].expressQueue false
param **.queues[4].expressQueue false
param **.queues[5].expressQueue false
param **.queues[6].expressQueue false
param **.queues[7].expressQueue false
param **.queues[*].bufferCapacity 363360b
param **.switchA.eth[2].mac.enablePreemptingFrames false
param **.robotController.tsn_app.initialSchedule "xmldoc(\"06_results_Scheduling/06_Scheduling_Schedule.xml\")"
param **.workstation1.trafGenQueue.destAddress "\"00-00-00-00-00-03\""
param **.workstation1.trafGenQueue.packetLength 470Byte
param **.workstation1.trafGenQueue.vlanTagEnabled true
param **.workstation1.trafGenQueue.pcp 6
param **.sink.app.numPacketsPerBurst 0
param **.sink.app.sendInterval 1ms
param **.sink.app.packetLength 100B

vector 0 TestNetwork.switchA.eth[0].queuing.queues[0] queueLength:vector ETV
attr interpolationmode sample-hold
attr title "queue length, vector"
vector 1 TestNetwork.switchA.eth[0].queuing.queues[1] queueLength:vector ETV
attr interpolationmode sample-hold
attr title "queue length, vector"
vector 2 TestNetwork.switchA.eth[0].queuing.queues[2] queueLength:vector ETV
attr interpolationmode sample-hold
attr title "queue length, vector"
vector 3 TestNetwork.switchA.eth[0].queuing.queues[3] queueLength:vector ETV
attr interpolationmode sample-hold
attr title "queue length, vector"
vector 4 TestNetwork.switchA.eth[0].queuing.queues[4] queueLength:vector ETV
attr interpolationmode sample-hold
attr title "queue length, vector"
vector 5 TestNetwork.switchA.eth[0].queuing.queues[5] queueLength:vector ETV
attr interpolationmode sample-hold
attr title "queue length, vector"
vector 6 TestNetwork.switchA.eth[0].queuing.queues[6] queueLength:vector ETV
attr interpolationmode sample-hold
attr title "queue length, vector"
vector 7 TestNetwork.switchA.eth[0].queuing.queues[7] queueLength:vector ETV
attr interpolationmode sample-hold
attr title "queue length, vector"
vector 8 TestNetwork.switchA.eth[1].queuing.queues[0] queueLength:vector ETV
attr interpolationmode sample-hold
attr title "queue length, vector"
vector 9 TestNetwork.switchA.eth[1].queuing.queues[1] queueLength:vector ETV
attr interpolationmode sample-hold
attr title "queue length, vector"
vector 10 TestNetwork.switchA.eth[1].queuing.queues[2] queueLength:vector ETV
attr interpolationmode sample-hold
attr title "queue length, vector"
vector 11 TestNetwork.switchA.eth[1].queuing.queues[3] queueLength:vector ETV
attr interpolationmode sample-hold
attr title "queue length, vector"
vector 12 TestNetwork.switchA.eth[1].queuing.queues[4] queueLength:vector ETV
attr interpolationmode sample-hold
attr title "queue length, vector"
vector 13 TestNetwork.switchA.eth[1].queuing.queues[5] queueLength:vector ETV
attr interpolationmode sample-hold
attr title "queue length, vector"
vector 14 TestNetwork.switchA.eth[1].queuing.queues[6] queueLength:vector ETV
attr interpolationmode sample-hold
attr title "queue length, vector"
vector 15 TestNetwork.switchA.eth[1].queuing.queues[7] queueLength:vector ETV
attr interpolationmode sample-hold
attr title "queue length, vector"
vector 16 TestNetwork.switchA.eth[2].queuing.queues[0] queueLength:vector ETV
attr interpolationmode sample-hold
attr title "queue length, vector"
vector 17 TestNetwork.switchA.eth[2].queuing.queues[1] queueLength:vector ETV
attr interpolationmode sample-hold
attr title "queue length, vector"
vector 18 TestNetwork.switchA.eth[2].queuing.queues[2] queueLength:vector ETV
attr interpolationmode sample-hold
attr title "queue length, vector"
vector 19 TestNetwork.switchA.eth[2].queuing.queues[3] queueLength:vector ETV
attr interpolationmode sample-hold
attr title "queue length, vector"
vector 20 TestNetwork.switchA.eth[2].queuing.queues[4] queueLength:vector ETV
attr interpolationmode sample-hold
attr title "queue length, vector"
vector 21 TestNetwork.switchA.eth[2].queuing.queues[5] queueLength:vector ETV
attr interpolationmode sample-hold
attr title "queue length, vector"
vector 22 TestNetwork.switchA.eth[2].queuing.queues[6] queueLength:vector ETV
attr interpolationmode sample-hold
attr title "queue length, vector"
vector 23 TestNetwork.switchA.eth[2].queuing.queues[7] queueLength:vector ETV
attr interpolationmode sample-hold
attr title "queue length, vector"
vector 24 TestNetwork.sink.eth.queuing.queues[0] queueLength:vector ETV
attr interpolationmode sample-hold
attr title "queue length, vector"
vector 25 TestNetwork.sink.eth.queuing.queues[1] queueLength:vector ETV
attr interpolationmode sample-hold
attr title "queue length, vector"
vector 26 TestNetwork.sink.eth.queuing.queues[2] queueLength:vector ETV
attr interpolationmode sample-hold
attr title "queue length, vector"
vector 27 TestNetwork.sink.eth.queuing.queues[3] queueLength:vector ETV
attr interpolationmode sample-hold
attr title "queue length, vector"
vector 28 TestNetwork.sink.eth.queuing.queues[4] queueLength:vector ETV
attr interpolationmode sample-hold
attr title "queue length, vector"
vector 29 TestNetwork.sink.eth.queuing.queues[5] queueLength:vector ETV
attr interpolationmode sample-hold
attr title "queue length, vector"
vector 30 TestNetwork.sink.eth.queuing.queues[6] queueLength:vector ETV
attr interpolationmode sample-hold
attr title "queue length, vector"
vector 31 TestNetwork.sink.eth.queuing.queues[7] queueLength:vector ETV
attr interpolationmode sample-hold
attr title "queue length, vector"
vector 32 TestNetwork.workstation1.trafGenQueue sentPk:vector(packetBytes) ETV
attr interpolationmode none
attr source sentPk
attr title "packets sent, vector(packetBytes)"
0	0	0	0
1	0	0	0
2	0	0	0
3	0	0	0
4	0	0	0
5	0	0	0
6	0	0	0
7	0	0	0
8	0	0	0
9	0	0	0
10	0	0	0
11	0	0	0
12	0	0	0
13	0	0	0
14	0	0	0
15	0	0	0
16	0	0	0
17	0	0	0
18	0	0	0
19	0	0	0
20	0	0	0
21	0	0	0
22	0	0	0
23	0	0	0
24	0	0	0
25	0	0	0
26	0	0	0
27	0	0	0
28	0	0	0
29	0	0	0
30	0	0	0
31	0	0	0
32	0	0	470
vector 33 TestNetwork.workstation1.vlanEncap encapPk:vector(packetBytes) ETV
attr interpolationmode none
attr source encapPk
attr title "packets encapsulated, vector(packetBytes)"
33	2	0	474
vector 34 TestNetwork.switchA.eth[0].queuing.tGates[4] gateStateChanged:vector ETV
attr interpolationmode none
attr title "gateStateChanged, vector"
34	5	0	0
vector 35 TestNetwork.switchA.eth[0].queuing.tGates[5] gateStateChanged:vector ETV
attr interpolationmode none
attr title "gateStateChanged, vector"
35	6	0	0
vector 36 TestNetwork.switchA.eth[0].queuing.tGates[6] gateStateChanged:vector ETV
attr interpolationmode none
attr title "gateStateChanged, vector"
36	7	0	0
vector 37 TestNetwork.switchA.eth[0].queuing.tGates[7] gateStateChanged:vector ETV
attr interpolationmode none
attr title "gateStateChanged, vector"
37	8	0	0
vector 38 TestNetwork.switchA.eth[1].queuing.tGates[0] gateStateChanged:vector ETV
attr interpolationmode none
attr title "gateStateChanged, vector"
38	9	0	0
vector 39 TestNetwork.switchA.eth[1].queuing.tGates[2] gateStateChanged:vector ETV
attr interpolationmode none
attr title "gateStateChanged, vector"
39	10	0	0
vector 40 TestNetwork.switchA.eth[1].queuing.tGates[4] gateStateChanged:vector ETV
attr interpolationmode none
attr title "gateStateChanged, vector"
40	11	0	0
vector 41 TestNetwork.switchA.eth[1].queuing.tGates[6] gateStateChanged:vector ETV
attr interpolationmode none
attr title "gateStateChanged, vector"
41	12	0	0
vector 42 TestNetwork.workstation1.eth.encap encapPk:vector(packetBytes) ETV
attr interpolationmode none
attr source encapPk
attr title "packets encapsulated, vector(packetBytes)"
42	13	0	474
vector 43 TestNetwork.robotController.vlanEncap encapPk:vector(packetBytes) ETV
attr interpolationmode none
attr source encapPk
attr title "packets encapsulated, vector(packetBytes)"
43	14	0	1174
vector 44 TestNetwork.workstation1.eth.mac packetReceivedFromUpper:vector(packetBytes) ETV
attr interpolationmode none
attr source packetReceivedFromUpper
attr title "packet bytes from higher layer, vector(packetBytes)"
44	15	0	492
vector 45 TestNetwork.robotController.eth.encap encapPk:vector(packetBytes) ETV
attr interpolationmode none
attr source encapPk
attr title "packets encapsulated, vector(packetBytes)"
45	16	0	1174
vector 46 TestNetwork.robotController.eth.mac packetReceivedFromUpper:vector(packetBytes) ETV
attr interpolationmode none
attr source packetReceivedFromUpper
attr title "packet bytes from higher layer, vector(packetBytes)"
46	17	0	1192
vector 47 TestNetwork.switchA.eth[0].queuing.tGates[0] gateStateChanged:vector ETV
attr interpolationmode none
attr title "gateStateChanged, vector"
47	23	0.00001	0
vector 48 TestNetwork.switchA.eth[0].queuing.tGates[1] gateStateChanged:vector ETV
attr interpolationmode none
attr title "gateStateChanged, vector"
48	24	0.00001	0
vector 49 TestNetwork.switchA.eth[0].queuing.tGates[2] gateStateChanged:vector ETV
attr interpolationmode none
attr title "gateStateChanged, vector"
49	25	0.00001	0
vector 50 TestNetwork.switchA.eth[0].queuing.tGates[3] gateStateChanged:vector ETV
attr interpolationmode none
attr title "gateStateChanged, vector"
50	26	0.00001	0
34	27	0.00001	1
35	28	0.00001	1
36	29	0.00001	1
37	30	0.00001	1
38	31	0.00001	1
vector 51 TestNetwork.switchA.eth[1].queuing.tGates[1] gateStateChanged:vector ETV
attr interpolationmode none
attr title "gateStateChanged, vector"
51	32	0.00001	0
39	33	0.00001	1
vector 52 TestNetwork.switchA.eth[1].queuing.tGates[3] gateStateChanged:vector ETV
attr interpolationmode none
attr title "gateStateChanged, vector"
52	34	0.00001	0
40	35	0.00001	1

